geometry optimzed in LAMMPS
_audit_creation_date              2020-11-30 
_audit_creation_method            'lammps2cif' 
_symmetry_space_group_name_H-M    'P1' 
_symmetry_Int_Tables_number       1 
_symmetry_cell_setting            triclinic 
loop_ 
_symmetry_equiv_pos_as_xyz 
  x,y,z 
_cell_length_a                    28.10867389 
_cell_length_b                    24.613522266955265 
_cell_length_c                    37.47502681110604 
_cell_angle_alpha                 90.6369348263219 
_cell_angle_beta                  82.05721219639682 
_cell_angle_gamma                 87.39618731449964 
loop_ 
_atom_site_label 
_atom_site_type_symbol 
_atom_site_fract_x 
_atom_site_fract_y 
_atom_site_fract_z 
_atom_site_charge 
C1          C  0.09073806  0.39349616  0.00823181    -0.02600
C2          C  0.43915076  0.56196368  0.47239691    -0.02600
Zr3        Zr  0.23398460  0.55335396  0.18707315     2.17500
O4          O  0.16111544  0.59232141  0.16731711    -0.51400
O5          O  0.29134023  0.56878376  0.13311976    -0.74600
O6          O  0.23459148  0.65193432  0.19306369    -0.81400
O7          O  0.19770666  0.41887825  0.15468205    -0.83200
O8          O  0.26553920  0.67272529  0.24435948    -0.78800
O9          O  0.19877481  0.50758973  0.13952847    -0.90400
O10         O  0.36039814  0.52059662  0.14002225    -0.76400
O11         O  0.30783271  0.56773742  0.20950338    -0.85900
O12         O  0.28033431  0.47009894  0.17723903    -0.85600
O13         O  0.21261427  0.57573626  0.25039247    -0.72300
O14         O  0.18665139  0.48638808  0.22011347    -0.84500
Zr15       Zr  0.28756965  0.43784469  0.29562347     2.26400
Zr16       Zr  0.28760190  0.58825787  0.27248710     2.06300
Zr17       Zr  0.23431032  0.40350126  0.20987222     2.10000
Zr18       Zr  0.35351578  0.48395137  0.20003182     1.78800
O19         O  0.16192447  0.35172134  0.21576662    -0.93300
O20         O  0.41877806  0.54653263  0.19543768    -0.41100
O21         O  0.30890563  0.41526887  0.23273032    -0.77700
O22         O  0.33501077  0.50489148  0.26295138    -0.96400
O23         O  0.24150153  0.52150743  0.30581726    -0.89700
O24         O  0.21364393  0.42382157  0.27316398    -0.92500
C25         C  0.33436136  0.55027603  0.12172469     1.01200
C26         C  0.18865872  0.45821524  0.13367206     1.14100
C27         C  0.24625904  0.68589584  0.21631661     1.04900
O28         O  0.36171379  0.63650686  0.26099465    -0.94700
O29         O  0.32925269  0.57568899  0.32510402    -0.90400
O30         O  0.32949375  0.48551390  0.33827658    -0.83600
C31         C  0.34012935  0.53477642  0.34398005     1.11600
O32         O  0.09950144  0.55951588  0.26505825    -0.96700
Zr33       Zr  0.16777106  0.50755800  0.28350506     1.88900
O34         O  0.23118904  0.42677816  0.35051175    -0.73300
O35         O  0.24996044  0.65109951  0.31991328    -0.52600
O36         O  0.13763257  0.58005824  0.32676502    -0.97300
O37         O  0.09975947  0.44961827  0.28284965    -0.54500
O38         O  0.15917383  0.46810754  0.34345469    -0.73800
C39         C  0.18717406  0.44127676  0.36195497     0.98500
O40         O  0.35375821  0.39056829  0.32016279    -0.62700
O41         O  0.27771682  0.34323386  0.16318002    -0.57500
O42         O  0.29017007  0.33890264  0.28686826    -0.94100
O43         O  0.25633707  0.31841386  0.23694114    -0.92600
O44         O  0.38287419  0.40556363  0.16176754    -0.92900
O45         O  0.42738281  0.44363829  0.21752317    -0.91700
C46         C  0.27729221  0.30495978  0.26406766     1.17300
H47         H  0.28631612  0.45989272  0.15199944     0.33300
H48         H  0.36513596  0.50806120  0.27227380     0.44100
H49         H  0.19731400  0.39426318  0.28549688     0.37700
H50         H  0.19293063  0.60904469  0.25344971     0.34100
H51         H  0.43968670  0.53589427  0.17272870     0.25900
H52         H  0.26831402  0.68449376  0.31649757     0.31900
H53         H  0.11012979  0.56483464  0.34223369     0.37800
H54         H  0.40630048  0.42014958  0.14248607     0.32200
H55         H  0.30772155  0.33131478  0.17250473     0.31100
H56         H  0.15462643  0.34435696  0.24181024     0.32800
H57         H  0.07816700  0.45910894  0.30544518     0.31800
H58         H  0.41700261  0.42525920  0.24047008     0.35800
H59         H  0.33898345  0.36297290  0.33668148     0.28500
H60         H  0.16975574  0.62755181  0.15641021     0.32700
H61         H  0.07203776  0.55464722  0.28415581     0.35600
H62         H  0.25870870  0.31028037  0.16376264     0.28200
H63         H  0.37234044  0.36957530  0.29975538     0.41100
H64         H  0.35596502  0.66923677  0.27687808     0.31100
H65         H  0.40381560  0.58230009  0.19036210     0.38700
H66         H  0.11248393  0.41231819  0.28663376     0.30600
H67         H  0.21806332  0.66139059  0.31299026     0.30600
H68         H  0.13896617  0.60137848  0.18966541     0.30900
C69         C  0.34550753  0.07485332  0.24705742    -0.02600
C70         C  0.19832968  0.91990426  0.20552733    -0.02600
Zr71       Zr  0.04021150  0.03757203  0.03043118     2.17500
O72         O  0.10006474  0.08313896  0.05989504    -0.51400
O73         O  0.98154010  0.05165545  0.08407241    -0.74600
O74         O  0.03763632  0.13583768  0.02391796    -0.81400
O75         O  0.09087367  0.90022971  0.05797225    -0.83200
O76         O  0.00845695  0.15729618  0.47470268    -0.78800
O77         O  0.08378956  0.99048446  0.07282834    -0.90400
O78         O  0.41647369  0.00451229  0.07896910    -0.76400
O79         O  0.46518545  0.05359809  0.01016504    -0.85900
O80         O  0.00001651  0.95475263  0.03813564    -0.85600
O81         O  0.06417202  0.05927016  0.46804595    -0.72300
O82         O  0.09304733  0.96905539  0.99764290    -0.84500
Zr83       Zr  0.49201132  0.92129434  0.42352226     2.26400
Zr84       Zr  0.98721995  0.07290821  0.44781401     2.06300
Zr85       Zr  0.05114705  0.88662481  0.00478571     2.10000
Zr86       Zr  0.42605421  0.96992785  0.01774293     1.78800
O87         O  0.12683997  0.83394774  0.98973562    -0.93300
O88         O  0.35635337  0.03366740  0.02370202    -0.41100
O89         O  0.47540726  0.89883721  0.48579243    -0.77700
O90         O  0.43973803  0.98892940  0.45803692    -0.96400
O91         O  0.03772473  0.00527182  0.41255610    -0.89700
O92         O  0.07395607  0.90615983  0.44055759    -0.92500
C93         C  0.44093346  0.03331277  0.09779588     1.01200
C94         C  0.09747355  0.94122897  0.07795860     1.14100
C95         C  0.02496080  0.17020284  0.00112137     1.04900
O96         O  0.40380016  0.12086237  0.46543341    -0.94700
O97         O  0.44293497  0.06395256  0.39778506    -0.90400
O98         O  0.44918987  0.97421195  0.38194054    -0.83600
C99         C  0.43604258  0.02402187  0.37723239     1.11600
O100        O  0.18385282  0.03083064  0.45129387    -0.96700
Zr101      Zr  0.11302790  0.99012909  0.43358638     1.88900
O102        O  0.05687199  0.90536376  0.36669462    -0.73300
O103        O  0.01013525  0.13916109  0.40141200    -0.52600
O104        O  0.13753273  0.06894959  0.39805629    -0.97300
O105        O  0.18378551  0.92765748  0.42569728    -0.54500
O106        O  0.11749064  0.96175599  0.37143887    -0.73800
C107        C  0.09476943  0.92931514  0.35375553     0.98500
O108        O  0.43881000  0.86821280  0.39220908    -0.62700
O109        O  0.52916609  0.81890435  0.05233525    -0.57500
O110        O  0.48219377  0.82471254  0.43702222    -0.94100
O111        O  0.02587459  0.80380810  0.48137449    -0.92600
O112        O  0.40042385  0.89237138  0.05407652    -0.92900
O113        O  0.35621409  0.92945434  0.99821156    -0.91700
C114        C  0.49680597  0.79067143  0.45950665     1.17300
H115        H  0.49582005  0.94588529  0.06532503     0.33300
H116        H  0.40922656  0.99283321  0.44899661     0.44100
H117        H  0.09221856  0.87643747  0.42730877     0.37700
H118        H  0.08211583  0.09184649  0.46559303     0.34100
H119        H  0.33540760  0.02200108  0.04544237     0.25900
H120        H  0.98894916  0.17193298  0.40829957     0.31900
H121        H  0.16612832  0.05569492  0.38125281     0.37800
H122        H  0.36726980  0.90278048  0.06535624     0.32200
H123        H  0.04858336  0.80760243  0.06058588     0.31100
H124        H  0.12188690  0.79962778  0.00298593     0.32800
H125        H  0.20663582  0.94439974  0.40696882     0.31800
H126        H  0.36778094  0.90817537  0.47726848     0.35800
H127        H  0.40662932  0.88704156  0.39722778     0.28500
H128        H  0.08184927  0.11002822  0.07703243     0.32700
H129        H  0.17124251  0.05455765  0.47230240     0.35600
H130        H  0.51270466  0.83941421  0.07374316     0.28200
H131        H  0.44926597  0.87299692  0.36614362     0.41100
H132        H  0.40707454  0.15449716  0.45123037     0.31100
H133        H  0.36842315  0.06871507  0.03097848     0.38700
H134        H  0.17397928  0.89486042  0.41362848     0.30600
H135        H  0.04266176  0.14970577  0.40521637     0.30600
H136        H  0.11838608  0.10494112  0.04113694     0.30900
C137        C  0.15885170  0.87413457  0.26516358    -0.05900
C138        C  0.16030477  0.92067295  0.24217355     0.00000
C139        C  0.13354318  0.96892184  0.25808886    -0.08500
C140        C  0.11185047  0.96823847  0.29421464    -0.05900
C141        C  0.11258429  0.92222059  0.31527555     0.00000
C142        C  0.13474084  0.87367166  0.30045422    -0.08400
C143        C  0.13628555  0.82254835  0.32290071     0.61900
H144        H  0.18083605  0.83813686  0.25807263     0.12600
H145        H  0.09489898  0.00537058  0.30699995     0.12600
C146        C  0.13030655  0.02506291  0.24183276     0.62200
F147        F  0.16027147  0.77884253  0.30353556    -0.23000
F148        F  0.08997771  0.80773980  0.33474450    -0.20300
F149        F  0.15953359  0.83239327  0.35236444    -0.20000
F150        F  0.13786827  0.02437765  0.20521414    -0.20100
F151        F  0.16308298  0.05756602  0.25488330    -0.20400
F152        F  0.08481949  0.04919434  0.25158408    -0.23100
C153        C  0.17201388  0.92461284  0.10443817    -0.05900
C154        C  0.12231477  0.93185447  0.10957195     0.00000
C155        C  0.09711714  0.93217335  0.14455411    -0.08500
C156        C  0.12279979  0.93037403  0.17395798    -0.05900
C157        C  0.17387525  0.92732605  0.17025468     0.00000
C158        C  0.19876602  0.92004980  0.13359507    -0.08400
C159        C  0.25284747  0.90956171  0.12336716     0.61900
H160        H  0.18959194  0.92250651  0.07683223     0.12600
H161        H  0.10185393  0.92994585  0.20020149     0.12600
C162        C  0.04289658  0.93184959  0.15042752     0.62200
F163        F  0.26725597  0.91304698  0.08662436    -0.23000
F164        F  0.26703501  0.85801915  0.13282547    -0.20300
F165        F  0.27706247  0.94784037  0.13935341    -0.20000
F166        F  0.02883715  0.88924366  0.13056533    -0.20100
F167        F  0.02404718  0.98069064  0.13941498    -0.20400
F168        F  0.02452623  0.92460188  0.18613575    -0.23100
C169        C  0.27535185  0.05097261  0.21476359    -0.05900
C170        C  0.30050858  0.03706809  0.24389232     0.00000
C171        C  0.28720509  0.98649078  0.26119153    -0.08500
C172        C  0.25410355  0.95441389  0.24630326    -0.05900
C173        C  0.23353706  0.96537809  0.21449837     0.00000
C174        C  0.24383385  0.01802429  0.19889295    -0.08400
C175        C  0.22659427  0.04737114  0.16647363     0.61900
H176        H  0.28323669  0.08917280  0.20213646     0.12600
H177        H  0.24484443  0.91672524  0.25913279     0.12600
C178        C  0.30384030  0.96315350  0.29549552     0.62200
F179        F  0.20645538  0.09813796  0.17786939    -0.23000
F180        F  0.19328919  0.02323088  0.14925409    -0.20300
F181        F  0.26602738  0.05533008  0.14084402    -0.20000
F182        F  0.28569743  0.99585367  0.32474523    -0.20100
F183        F  0.35310022  0.95606038  0.29195941    -0.20400
F184        F  0.28693738  0.91217401  0.30389713    -0.23100
C185        C  0.34907831  0.06979021  0.31360794    -0.05900
C186        C  0.37462157  0.05672565  0.27870083     0.00000
C187        C  0.42362408  0.03347969  0.27804335    -0.08500
C188        C  0.44064428  0.02379795  0.31141452    -0.05900
C189        C  0.41363235  0.03638618  0.34468414     0.00000
C190        C  0.36702052  0.05966022  0.34610096    -0.08400
C191        C  0.33544621  0.07196009  0.38185583     0.61900
H192        H  0.31289696  0.08738297  0.31560689     0.12600
H193        H  0.47601477  0.00494266  0.31231719     0.12600
C194        C  0.45885704  0.01228696  0.24542809     0.62200
F195        F  0.28908061  0.08913521  0.37733748    -0.23000
F196        F  0.35473714  0.11265104  0.40020271    -0.20300
F197        F  0.33263168  0.02566227  0.40250354    -0.20000
F198        F  0.46449394  0.04859168  0.21775425    -0.20100
F199        F  0.44406066  0.96320726  0.23403991    -0.20400
F200        F  0.50488133  0.00210468  0.25385263    -0.23100
C201        C  0.41309970  0.09738328  0.14757883    -0.05900
C202        C  0.42098648  0.04370640  0.13576165     0.00000
C203        C  0.40563809  0.00170899  0.15904946    -0.08500
C204        C  0.38379200  0.01555659  0.19409685    -0.05900
C205        C  0.37395963  0.06999359  0.20722028     0.00000
C206        C  0.38343367  0.11187461  0.18007469    -0.08400
C207        C  0.35999832  0.16944466  0.17871184     0.61900
H208        H  0.42518304  0.12858452  0.12864609     0.12600
H209        H  0.37222066  0.98263066  0.21151614     0.12600
C210        C  0.40973099  0.94220171  0.14716420     0.62200
F211        F  0.35589527  0.18340302  0.14344837    -0.23000
F212        F  0.38821185  0.20733470  0.19179625    -0.20300
F213        F  0.31369498  0.17473934  0.19589804    -0.20000
F214        F  0.44903386  0.93045152  0.12176475    -0.20100
F215        F  0.36944249  0.92995090  0.13211006    -0.20400
F216        F  0.41413322  0.90865547  0.17597497    -0.23100
C217        C  0.18715530  0.82008737  0.19342380    -0.05900
C218        C  0.22116875  0.85915605  0.20008192     0.00000
C219        C  0.26758943  0.83639236  0.20660535    -0.08500
C220        C  0.27271286  0.78013798  0.21318914    -0.05900
C221        C  0.23610351  0.74442164  0.21075566     0.00000
C222        C  0.19190786  0.76507681  0.20167066    -0.08400
C223        C  0.14619442  0.73363347  0.20488465     0.61900
H224        H  0.15203646  0.83361561  0.18765091     0.12600
H225        H  0.30709169  0.76306073  0.21893250     0.12600
C226        C  0.31544471  0.86342114  0.20304184     0.62200
F227        F  0.10858153  0.76466601  0.22398858    -0.23000
F228        F  0.14965314  0.68566830  0.22318023    -0.20300
F229        F  0.13488800  0.72292905  0.17084723    -0.20000
F230        F  0.33239680  0.86393423  0.23597304    -0.20100
F231        F  0.31421816  0.91501839  0.19035899    -0.20400
F232        F  0.34826421  0.83330617  0.17875210    -0.21300
C233        C  0.34070491  0.23356329  0.26668195    -0.05900
C234        C  0.29184291  0.24664213  0.26712678     0.00000
C235        C  0.25959484  0.20431630  0.26835386    -0.08500
C236        C  0.27820949  0.15011472  0.26537762    -0.05900
C237        C  0.32836974  0.13616087  0.25754467     0.00000
C238        C  0.36016903  0.17953918  0.26260992    -0.08400
C239        C  0.41420976  0.17200943  0.26414762     0.61900
H240        H  0.36401227  0.26710807  0.26814700     0.12600
H241        H  0.25264327  0.11868273  0.26803325     0.12600
C242        C  0.20567878  0.21626114  0.27279986     0.62200
F243        F  0.43646744  0.22110202  0.26388680    -0.23000
F244        F  0.43696974  0.14255141  0.23496533    -0.20300
F245        F  0.42230511  0.14687414  0.29557676    -0.20000
F246        F  0.19313433  0.24095824  0.24230597    -0.20100
F247        F  0.19209204  0.25032775  0.30232527    -0.20400
F248        F  0.18025362  0.16948359  0.27806029    -0.23100
C249        C  0.43346312  0.56373737  0.40522291    -0.05900
C250        C  0.40814926  0.55579973  0.44026910     0.00000
C251        C  0.35622564  0.55242144  0.44182741    -0.08500
C252        C  0.33767144  0.54084889  0.40957344    -0.05900
C253        C  0.36461992  0.54482062  0.37573690     0.00000
C254        C  0.41284380  0.55884257  0.37323580    -0.08400
C255        C  0.44280326  0.56696990  0.33691289     0.61900
H256        H  0.47049355  0.57431737  0.40287213     0.12600
H257        H  0.30018453  0.53149577  0.41043009     0.12600
C258        C  0.31679996  0.56437998  0.47404563     0.62200
F259        F  0.48980533  0.57835191  0.34025187    -0.23000
F260        F  0.42302566  0.60999659  0.31965165    -0.20300
F261        F  0.44370840  0.52033243  0.31585366    -0.20000
F262        F  0.27420462  0.58259924  0.46241168    -0.20100
F263        F  0.32725519  0.60503719  0.49672661    -0.20400
F264        F  0.30697731  0.51774612  0.49302879    -0.23100
C265        C  0.40416714  0.60483369  0.03660357    -0.05900
C266        C  0.40624672  0.55986689  0.01174699     0.00000
C267        C  0.38320290  0.51146067  0.02601869    -0.08500
C268        C  0.35746849  0.51310112  0.06109037    -0.05900
C269        C  0.35479193  0.55840502  0.08378467     0.00000
C270        C  0.37859641  0.60501926  0.07176759    -0.08400
C271        C  0.37864582  0.65383253  0.09684151     0.61900
H272        H  0.42474105  0.63984515  0.02973799     0.12600
H273        H  0.34094006  0.47704715  0.07241321     0.12600
C274        C  0.38723052  0.45536847  0.00776978     0.62200
F275        F  0.40300700  0.69632147  0.08010242    -0.23000
F276        F  0.40061573  0.63898094  0.12632005    -0.20300
F277        F  0.33183062  0.67233057  0.10854378    -0.20000
F278        F  0.43104564  0.42725989  0.51588615    -0.20100
F279        F  0.38890312  0.45736550  0.47272065    -0.20400
F280        F  0.35186465  0.42182717  0.02294477    -0.23100
C281        C  0.42452945  0.66373105  0.46451901    -0.05900
C282        C  0.46014350  0.62091012  0.46535766     0.00000
C283        C  0.50967005  0.63654213  0.45714612    -0.08500
C284        C  0.02081255  0.69332712  0.45712877    -0.05900
C285        C  0.48263500  0.73347020  0.45840727     0.00000
C286        C  0.43442671  0.71894885  0.46167275    -0.08400
C287        C  0.39307414  0.76142068  0.46398317     0.61900
H288        H  0.38757388  0.65362348  0.46714452     0.12600
H289        H  0.05756357  0.70588569  0.45505271     0.12600
C290        C  0.05661827  0.60019933  0.44741276     0.62200
F291        F  0.34865289  0.73857373  0.47067029    -0.23000
F292        F  0.39488757  0.78833090  0.43177516    -0.20300
F293        F  0.39617943  0.79834235  0.49155892    -0.20000
F294        F  0.04799393  0.55600552  0.42712004    -0.20100
F295        F  0.07626937  0.58408388  0.47760800    -0.20400
F296        F  0.09168084  0.62723656  0.42575677    -0.23100
C297        C  0.02940261  0.42940531  0.46908383    -0.05900
C298        C  0.05005260  0.43584448  0.50135663     0.00000
C299        C  0.02993854  0.48196788  0.52308128    -0.08500
C300        C  0.00468012  0.52373085  0.50720777    -0.05900
C301        C  0.48085638  0.51677839  0.47528108     0.00000
C302        C  0.49406370  0.46631902  0.45520892    -0.08400
C303        C  0.48267729  0.45169074  0.41709786     0.61900
H304        H  0.53046422  0.38875880  0.45676257     0.12600
H305        H  0.99639981  0.56103945  0.52291984     0.12600
C306        C  0.02506453  0.49255623  0.06417411     0.62200
F307        F  0.50612870  0.48513302  0.39189579    -0.23000
F308        F  0.43440138  0.45385901  0.41439883    -0.20300
F309        F  0.49875090  0.39927692  0.40627896    -0.20000
F310        F  0.05216332  0.52508376  0.57542482    -0.20100
F311        F  0.03322396  0.44634308  0.08266480    -0.20400
F312        F  0.97891977  0.51134809  0.07814123    -0.23100
C313        C  0.18442529  0.44944551  0.42844408    -0.05900
C314        C  0.16746054  0.42530034  0.39900825     0.00000
C315        C  0.13761626  0.38115203  0.40519822    -0.08500
C316        C  0.12129439  0.36705765  0.44090408    -0.05900
C317        C  0.13209048  0.39617351  0.47182003     0.00000
C318        C  0.17231646  0.43066225  0.46398805    -0.08400
C319        C  0.21343100  0.43530264  0.48619653     0.61900
H320        H  0.21221873  0.47864506  0.42302242     0.12600
H321        H  0.09718932  0.33412427  0.44434669     0.12600
C322        C  0.12217436  0.34967002  0.37404517     0.62200
F323        F  0.25653664  0.41956500  0.46525426    -0.23000
F324        F  0.20991937  0.40243822  0.51571884    -0.20300
F325        F  0.21632090  0.48874609  0.49670169    -0.20000
F326        F  0.16229140  0.33102233  0.35089408    -0.20100
F327        F  0.09376463  0.38337937  0.35562773    -0.20400
F328        F  0.09608098  0.30515944  0.38545597    -0.23100
C329        C  0.14221921  0.39419112  0.10191843    -0.05900
C330        C  0.16346673  0.44460896  0.10157789     0.00000
C331        C  0.15715429  0.47962862  0.07235173    -0.08500
C332        C  0.13243741  0.46091938  0.04435928    -0.05900
C333        C  0.11292566  0.40903341  0.04350680     0.00000
C334        C  0.11295490  0.37791592  0.07639740    -0.08400
C335        C  0.07846529  0.33323417  0.08996909     0.61900
H336        H  0.14618325  0.36776635  0.12429043     0.12600
H337        H  0.12814449  0.48736242  0.02206955     0.12600
C338        C  0.17681887  0.53618400  0.06948643     0.62200
F339        F  0.07479347  0.32772732  0.12703366    -0.23000
F340        F  0.09419384  0.28300067  0.07531228    -0.20300
F341        F  0.03226522  0.34573232  0.08354389    -0.20000
F342        F  0.22602956  0.53286160  0.06978756    -0.20100
F343        F  0.15478159  0.56858237  0.09780534    -0.20400
F344        F  0.16819138  0.56174884  0.03810770    -0.23100
C345        C  0.09157086  0.23353104  0.50620056    -0.05900
C346        C  0.03954829  0.22627986  0.00492926     0.00000
C347        C  0.00692324  0.27066369  0.01369260    -0.08500
C348        C  0.02500129  0.32269715  0.01586427    -0.05900
C349        C  0.07504254  0.33259770  0.01017124     0.00000
C350        C  0.11073148  0.28536713  0.50772730    -0.08400
C351        C  0.16570702  0.28548080  0.50684717     0.61900
H352        H  0.11512085  0.19724305  0.50372226     0.12600
H353        H  0.99923090  0.35599900  0.02336465     0.12600
C354        C  0.45271677  0.26580650  0.01218167     0.62200
F355        F  0.18609296  0.23347947  0.50888397    -0.23000
F356        F  0.17504690  0.30764798  0.03294414    -0.20300
F357        F  0.18793929  0.30663220  0.47532627    -0.20000
F358        F  0.43821384  0.23203116  0.04049660    -0.20100
F359        F  0.44177483  0.24312196  0.98056859    -0.20400
F360        F  0.42672214  0.31491073  0.01816986    -0.23100
C361        C  0.09393128  0.39378762  0.50816817    -0.02600
C362        C  0.43844229  0.56298674  0.97313485    -0.02600
Zr363      Zr  0.23794100  0.55294429  0.68678664     2.17500
O364        O  0.16735400  0.59584018  0.66580031    -0.51400
O365        O  0.29699382  0.56833473  0.63385147    -0.74600
O366        O  0.23815479  0.65160172  0.69358031    -0.81400
O367        O  0.19842904  0.41897847  0.65518036    -0.83200
O368        O  0.26919282  0.67188832  0.74486228    -0.78800
O369        O  0.20119371  0.50754309  0.63988861    -0.90400
O370        O  0.36535477  0.51929969  0.64150189    -0.76400
O371        O  0.31191351  0.56507802  0.70955515    -0.85900
O372        O  0.28229387  0.46803212  0.67769463    -0.85600
O373        O  0.21587283  0.57533985  0.74991481    -0.72300
O374        O  0.18841287  0.48742548  0.71942239    -0.84500
Zr375      Zr  0.28692394  0.43694298  0.79653665     2.26400
Zr376      Zr  0.29064613  0.58655646  0.77233142     2.06300
Zr377      Zr  0.23405896  0.40310569  0.71049586     2.10000
Zr378      Zr  0.35559457  0.47981083  0.70089607     1.78800
O379        O  0.15869686  0.35696599  0.72076907    -0.93300
O380        O  0.42340955  0.53836789  0.69973792    -0.41100
O381        O  0.30866440  0.41296958  0.73370122    -0.77700
O382        O  0.33653828  0.50198296  0.76369588    -0.96400
O383        O  0.24240428  0.52148886  0.80553616    -0.89700
O384        O  0.21317055  0.42395170  0.77358525    -0.92500
C385        C  0.34013017  0.54973565  0.62298401     1.01200
C386        C  0.19000956  0.45849448  0.63420978     1.14100
C387        C  0.24969830  0.68537517  0.71698038     1.04900
O388        O  0.36481925  0.63467117  0.76074989    -0.94700
O389        O  0.33114267  0.57344427  0.82528527    -0.90400
O390        O  0.32857846  0.48385353  0.83968304    -0.83600
C391        C  0.34044011  0.53280049  0.84485030     1.11600
O392        O  0.10246647  0.56401135  0.76429195    -0.96700
Zr393      Zr  0.16881492  0.50863186  0.78267348     1.88900
O394        O  0.22884141  0.42781480  0.85086347    -0.73300
O395        O  0.25303830  0.64883497  0.82006313    -0.52600
O396        O  0.13783317  0.57902856  0.82718525    -0.97300
O397        O  0.10135676  0.45098946  0.77855408    -0.54500
O398        O  0.15722990  0.46871967  0.84236143    -0.73800
C399        C  0.18456101  0.44220634  0.86152325     0.98500
O400        O  0.35129158  0.38969403  0.82320418    -0.62700
O401        O  0.26859051  0.33781845  0.66354451    -0.57500
O402        O  0.28813855  0.33828783  0.78866041    -0.94100
O403        O  0.25641941  0.31828941  0.73770299    -0.92600
O404        O  0.38626468  0.40417260  0.66039585    -0.92900
O405        O  0.42533682  0.43071158  0.71895728    -0.91700
C406        C  0.27600154  0.30463051  0.76542833     1.17300
H407        H  0.28829921  0.45782341  0.65245429     0.33300
H408        H  0.36649700  0.50428629  0.77337743     0.44100
H409        H  0.19611145  0.39482465  0.78585902     0.37700
H410        H  0.19673230  0.60895630  0.75299330     0.34100
H411        H  0.41124109  0.57428742  0.69230912     0.25900
H412        H  0.27152043  0.68215927  0.81692600     0.31900
H413        H  0.16387808  0.58333725  0.84213667     0.37800
H414        H  0.36815049  0.40747200  0.63960665     0.32200
H415        H  0.29961041  0.32459341  0.67075848     0.31100
H416        H  0.13420715  0.38397784  0.71440458     0.32800
H417        H  0.07643575  0.46359449  0.79858457     0.31800
H418        H  0.41168856  0.40180103  0.73488672     0.35800
H419        H  0.33558510  0.36245111  0.83954730     0.28500
H420        H  0.17688875  0.63112451  0.65535698     0.32700
H421        H  0.07492393  0.56058586  0.78355204     0.35600
H422        H  0.24782998  0.30628557  0.66668609     0.28200
H423        H  0.37049477  0.36827881  0.80328262     0.41100
H424        H  0.36153868  0.66352776  0.77966649     0.31100
H425        H  0.42748974  0.54378975  0.72533454     0.38700
H426        H  0.11213580  0.41444232  0.78582613     0.30600
H427        H  0.22121927  0.65944134  0.81311712     0.30600
H428        H  0.14447963  0.60483827  0.68778120     0.30900
C429        C  0.34578947  0.07551110  0.74778374    -0.02600
C430        C  0.19887568  0.91972078  0.70731707    -0.02600
Zr431      Zr  0.04423304  0.03648438  0.53022725     2.17500
O432        O  0.10817525  0.07996563  0.55625497    -0.51400
O433        O  0.98575245  0.05006259  0.58407965    -0.74600
O434        O  0.04117638  0.13502533  0.52506193    -0.81400
O435        O  0.09480652  0.89947287  0.55746952    -0.83200
O436        O  0.00531704  0.15815499  0.97339820    -0.78800
O437        O  0.08521929  0.98900684  0.57401602    -0.90400
O438        O  0.41718729  0.00255153  0.58104549    -0.76400
O439        O  0.46346377  0.05063694  0.51348059    -0.85900
O440        O  0.00498937  0.95304766  0.53745743    -0.85600
O441        O  0.06222630  0.05902496  0.96818207    -0.72300
O442        O  0.09723254  0.96917552  0.49627152    -0.84500
Zr443      Zr  0.49691388  0.92065801  0.92260352     2.26400
Zr444      Zr  0.98603265  0.07306113  0.94696471     2.06300
Zr445      Zr  0.05643441  0.88617926  0.50334706     2.10000
Zr446      Zr  0.42520035  0.96626546  0.52044339     1.78800
O447        O  0.13278373  0.83635001  0.48458921    -0.93300
O448        O  0.35257744  0.02554780  0.52814775    -0.41100
O449        O  0.47690559  0.90057699  0.98514074    -0.77700
O450        O  0.44355647  0.98966798  0.95495809    -0.96400
O451        O  0.03619390  0.00428421  0.91301777    -0.89700
O452        O  0.07052624  0.90504173  0.94192472    -0.92500
C453        C  0.44165199  0.03223912  0.59929188     1.01200
C454        C  0.09966666  0.93981546  0.57857009     1.14100
C455        C  0.02839890  0.16949425  0.50232179     1.04900
O456        O  0.40966207  0.12308354  0.96061641    -0.94700
O457        O  0.45021879  0.06091520  0.89349671    -0.90400
O458        O  0.45079511  0.97011457  0.88139524    -0.83600
C459        C  0.44037153  0.02009420  0.87487107     1.11600
O460        O  0.18183979  0.02751902  0.95301794    -0.96700
Zr461      Zr  0.11070370  0.98812660  0.93490485     1.88900
O462        O  0.05402063  0.90581934  0.86748373    -0.73300
O463        O  0.01507156  0.13525853  0.89949814    -0.52600
O464        O  0.14960525  0.05941802  0.89869899    -0.97300
O465        O  0.17360618  0.91591650  0.92994196    -0.54500
O466        O  0.11301903  0.96443124  0.87205784    -0.73800
C467        C  0.09101311  0.93121777  0.85438698     0.98500
O468        O  0.45555365  0.86056486  0.88616276    -0.62700
O469        O  0.52453660  0.82004501  0.55261817    -0.57500
O470        O  0.48365440  0.82536584  0.93846585    -0.94100
O471        O  0.02388733  0.80353970  0.98105558    -0.92600
O472        O  0.40470633  0.88736828  0.55714773    -0.92900
O473        O  0.35655376  0.92165046  0.50213834    -0.91700
C474        C  0.49742923  0.79181533  0.96156127     1.17300
H475        H  0.49696576  0.94207996  0.56608895     0.33300
H476        H  0.41341755  0.99338828  0.94538898     0.44100
H477        H  0.08871320  0.87493429  0.92902243     0.37700
H478        H  0.08048424  0.09137920  0.96563829     0.34100
H479        H  0.33246285  0.01156438  0.54957504     0.25900
H480        H  0.99709512  0.17035745  0.90580737     0.31900
H481        H  0.12406596  0.07567632  0.88587496     0.37800
H482        H  0.37077589  0.89465769  0.56784998     0.32200
H483        H  0.06211981  0.80167868  0.55485306     0.31100
H484        H  0.15700526  0.85862256  0.49386960     0.32800
H485        H  0.18513945  0.91562135  0.95374167     0.31800
H486        H  0.36849522  0.91200841  0.97459610     0.35800
H487        H  0.42153877  0.87429038  0.88945322     0.28500
H488        H  0.09194497  0.10729761  0.57399770     0.32700
H489        H  0.16973943  0.04836174  0.97544058     0.35600
H490        H  0.50929564  0.84218508  0.57368925     0.28200
H491        H  0.46792077  0.86823615  0.86076414     0.41100
H492        H  0.38545774  0.09493898  0.96384888     0.31100
H493        H  0.36293681  0.06099845  0.53627482     0.38700
H494        H  0.20047258  0.93005204  0.91325817     0.30600
H495        H  0.04855620  0.14175743  0.90321786     0.30600
H496        H  0.12531187  0.10129886  0.53666115     0.30900
C497        C  0.16168171  0.87623058  0.76830478    -0.05900
C498        C  0.16067879  0.92102766  0.74394777     0.00000
C499        C  0.13058386  0.96817395  0.75817416    -0.08500
C500        C  0.10660460  0.96745432  0.79378792    -0.05900
C501        C  0.10969520  0.92317238  0.81611764     0.00000
C502        C  0.13649024  0.87622646  0.80327807    -0.08400
C503        C  0.14129085  0.82775749  0.82772219     0.61900
H504        H  0.18636900  0.84189595  0.76239551     0.12600
H505        H  0.08684246  0.00362473  0.80565555     0.12600
C506        C  0.12738827  0.02392889  0.74109229     0.62200
F507        F  0.16994907  0.78535003  0.81056444    -0.23000
F508        F  0.09635272  0.80834959  0.83892161    -0.20300
F509        F  0.16146623  0.84355653  0.85763353    -0.20000
F510        F  0.13009228  0.02152030  0.70455338    -0.20100
F511        F  0.16326310  0.05509813  0.75081992    -0.20400
F512        F  0.08380253  0.05118364  0.75310827    -0.23100
C513        C  0.17385158  0.92459582  0.60575903    -0.05900
C514        C  0.12400216  0.92988394  0.61047583     0.00000
C515        C  0.09845665  0.92875727  0.64534118    -0.08500
C516        C  0.12386086  0.92604731  0.67490555    -0.05900
C517        C  0.17483602  0.92595113  0.67170630     0.00000
C518        C  0.20033712  0.92084430  0.63514266    -0.08400
C519        C  0.25469614  0.91321508  0.62520761     0.61900
H520        H  0.19181545  0.92379213  0.57825935     0.12600
H521        H  0.10285936  0.92309560  0.70098709     0.12600
C522        C  0.04421113  0.92859603  0.65106935     0.62200
F523        F  0.26933098  0.91800113  0.58857804    -0.23000
F524        F  0.27044573  0.86211732  0.63432383    -0.20300
F525        F  0.27738885  0.95241384  0.64165329    -0.20000
F526        F  0.03009338  0.88465636  0.63251116    -0.20100
F527        F  0.02555508  0.97648754  0.63857541    -0.20400
F528        F  0.02556512  0.92406277  0.68696817    -0.23100
C529        C  0.27492525  0.05157438  0.71642971    -0.05900
C530        C  0.30087293  0.03744653  0.74508719     0.00000
C531        C  0.28818917  0.98662734  0.76233665    -0.08500
C532        C  0.25499743  0.95443578  0.74767997    -0.05900
C533        C  0.23368479  0.96557689  0.71623995     0.00000
C534        C  0.24296759  0.01867334  0.70102493    -0.08400
C535        C  0.22367053  0.04879122  0.66975609     0.61900
H536        H  0.28228001  0.09011074  0.70394239     0.12600
H537        H  0.24655778  0.91638922  0.76024222     0.12600
C538        C  0.30576525  0.96295261  0.79623731     0.62200
F539        F  0.20173786  0.09803976  0.68267242    -0.23000
F540        F  0.19119953  0.02359967  0.65231577    -0.20300
F541        F  0.26206056  0.05999274  0.64395092    -0.20000
F542        F  0.28819137  0.99528174  0.82580559    -0.20100
F543        F  0.35507034  0.95599359  0.79199185    -0.20400
F544        F  0.28919310  0.91183213  0.80464933    -0.23100
C545        C  0.35176225  0.06867962  0.81364350    -0.05900
C546        C  0.37629656  0.05681781  0.77835521     0.00000
C547        C  0.42555069  0.03347406  0.77643947    -0.08500
C548        C  0.44284979  0.02026882  0.80921075    -0.05900
C549        C  0.41678743  0.03194484  0.84290702     0.00000
C550        C  0.37061812  0.05666036  0.84544265    -0.08400
C551        C  0.34068243  0.06922553  0.88174840     0.61900
H552        H  0.31573686  0.08694607  0.81653250     0.12600
H553        H  0.47799866  0.00029163  0.80921654     0.12600
C554        C  0.46130643  0.01595271  0.74306546     0.62200
F555        F  0.29382976  0.08602808  0.87845960    -0.23000
F556        F  0.36095954  0.11036871  0.89894178    -0.20300
F557        F  0.33908972  0.02327786  0.90274484    -0.20000
F558        F  0.46479284  0.05341582  0.71605637    -0.20100
F559        F  0.44920335  0.96626123  0.73068933    -0.20400
F560        F  0.50781774  0.00870807  0.75106858    -0.23100
C561        C  0.41381744  0.09738079  0.64850776    -0.05900
C562        C  0.42166967  0.04349144  0.63707957     0.00000
C563        C  0.40577904  0.00184347  0.66043814    -0.08500
C564        C  0.38344040  0.01611465  0.69517474    -0.05900
C565        C  0.37371879  0.07067590  0.70795023     0.00000
C566        C  0.38415850  0.11241025  0.68092968    -0.08400
C567        C  0.36196286  0.17050801  0.67995044     0.61900
H568        H  0.42628855  0.12824272  0.62944744     0.12600
H569        H  0.37240811  0.98334472  0.71293100     0.12600
C570        C  0.41056710  0.94213790  0.64908783     0.62200
F571        F  0.35900917  0.18570536  0.64474673    -0.23000
F572        F  0.39041889  0.20727940  0.69391524    -0.20300
F573        F  0.31542854  0.17604254  0.69671299    -0.20000
F574        F  0.45059902  0.93048600  0.62440321    -0.20100
F575        F  0.37099639  0.92905650  0.63336093    -0.20400
F576        F  0.41437071  0.90922541  0.67830024    -0.23100
C577        C  0.18729904  0.81953426  0.69770726    -0.05900
C578        C  0.22188469  0.85888277  0.70231029     0.00000
C579        C  0.26921552  0.83642018  0.70700498    -0.08500
C580        C  0.27546432  0.77993610  0.71268260    -0.05900
C581        C  0.23870564  0.74392573  0.71194444     0.00000
C582        C  0.19317374  0.76449436  0.70552598    -0.08400
C583        C  0.14753463  0.73290562  0.71091559     0.61900
H584        H  0.15133766  0.83286535  0.69384432     0.12600
H585        H  0.31058171  0.76302106  0.71687830     0.12600
C586        C  0.31664626  0.86430441  0.70329085     0.62200
F587        F  0.11207499  0.76271210  0.73320620    -0.23000
F588        F  0.15327842  0.68355153  0.72707660    -0.20300
F589        F  0.13179520  0.72473070  0.67800739    -0.20000
F590        F  0.33416175  0.86414166  0.73600843    -0.20100
F591        F  0.31450023  0.91627333  0.69139725    -0.20400
F592        F  0.34947617  0.83537105  0.67833895    -0.21300
C593        C  0.33921524  0.23388709  0.76889515    -0.05900
C594        C  0.29045195  0.24649200  0.76858776     0.00000
C595        C  0.25855325  0.20398544  0.76889336    -0.08500
C596        C  0.27765247  0.14997974  0.76644014    -0.05900
C597        C  0.32799512  0.13654107  0.75881993     0.00000
C598        C  0.35922781  0.18020376  0.76442734    -0.08400
C599        C  0.41322386  0.17342517  0.76615004     0.61900
H600        H  0.36210245  0.26764447  0.77104688     0.12600
H601        H  0.25228298  0.11836875  0.76919783     0.12600
C602        C  0.20462083  0.21549690  0.77153935     0.62200
F603        F  0.43499628  0.22284116  0.76578494    -0.23000
F604        F  0.43628087  0.14417032  0.73705698    -0.20300
F605        F  0.42143782  0.14844533  0.79761416    -0.20000
F606        F  0.19395528  0.24144839  0.74091622    -0.20100
F607        F  0.18879166  0.24827789  0.80138357    -0.20400
F608        F  0.17945837  0.16832803  0.77475830    -0.23100
C609        C  0.43316704  0.56429329  0.90596857    -0.05900
C610        C  0.40761622  0.55729275  0.94096665     0.00000
C611        C  0.35562555  0.55465172  0.94243110    -0.08500
C612        C  0.33728300  0.54139771  0.91039462    -0.05900
C613        C  0.36473233  0.54316875  0.87660239     0.00000
C614        C  0.41303545  0.55697266  0.87398953    -0.08400
C615        C  0.44380418  0.56127873  0.83759122     0.61900
H616        H  0.47012566  0.57510665  0.90364397     0.12600
H617        H  0.29960651  0.53280122  0.91133017     0.12600
C618        C  0.31586252  0.56924828  0.97404569     0.62200
F619        F  0.49075672  0.57288604  0.84089082    -0.23000
F620        F  0.42497663  0.60228893  0.81808168    -0.20300
F621        F  0.44463164  0.51252366  0.81874456    -0.20000
F622        F  0.27477127  0.59005357  0.96137654    -0.20100
F623        F  0.32733078  0.60904323  0.99693642    -0.20400
F624        F  0.30310435  0.52345034  0.99314750    -0.23100
C625        C  0.40592209  0.60508716  0.53605567    -0.05900
C626        C  0.40766026  0.55969548  0.51145287     0.00000
C627        C  0.38636686  0.51101621  0.52673132    -0.08500
C628        C  0.36374485  0.51190307  0.56265702    -0.05900
C629        C  0.36084631  0.55756562  0.58501044     0.00000
C630        C  0.38240812  0.60505598  0.57192532    -0.08400
C631        C  0.38303550  0.65430563  0.59658730     0.61900
H632        H  0.42559861  0.64050284  0.52856413     0.12600
H633        H  0.34917743  0.47511069  0.57449318     0.12600
C634        C  0.38971532  0.45488430  0.50889894     0.62200
F635        F  0.40481398  0.69758440  0.57874175    -0.23000
F636        F  0.40805221  0.64065048  0.62475329    -0.20300
F637        F  0.33647434  0.67126518  0.61035385    -0.20000
F638        F  0.43075719  0.42999841  0.01173912    -0.20100
F639        F  0.38189585  0.45828341  0.97219901    -0.20400
F640        F  0.35111933  0.42439317  0.52223954    -0.23100
C641        C  0.42443794  0.66518651  0.96518864    -0.05900
C642        C  0.45960976  0.62205501  0.96662410     0.00000
C643        C  0.50927899  0.63759147  0.95990882    -0.08500
C644        C  0.01934158  0.69278312  0.95640411    -0.05900
C645        C  0.48288368  0.73463625  0.96097551     0.00000
C646        C  0.43480639  0.72032643  0.96223772    -0.08400
C647        C  0.39405039  0.76290358  0.96159721     0.61900
H648        H  0.38757365  0.65539350  0.96645671     0.12600
H649        H  0.05618763  0.70503603  0.95431091     0.12600
C650        C  0.05440139  0.59925167  0.94699149     0.62200
F651        F  0.34931446  0.74071374  0.96788845    -0.23000
F652        F  0.39814088  0.78660851  0.92816909    -0.20300
F653        F  0.39581345  0.80241298  0.98784814    -0.20000
F654        F  0.04523784  0.55462238  0.92727876    -0.20100
F655        F  0.07441212  0.58360960  0.97711673    -0.20400
F656        F  0.08937041  0.62572066  0.92483642    -0.23100
C657        C  0.02255447  0.42707639  0.97198379    -0.05900
C658        C  0.04593444  0.43529231  0.00279643     0.00000
C659        C  0.02823585  0.48340767  0.02349913    -0.08500
C660        C  0.00223153  0.52440235  0.00740519    -0.05900
C661        C  0.48027460  0.51798094  0.97610170     0.00000
C662        C  0.49433689  0.46799207  0.95578827    -0.08400
C663        C  0.48224388  0.45282043  0.91809096     0.61900
H664        H  0.53239380  0.39157364  0.95649519     0.12600
H665        H  0.99462421  0.56254361  0.02232016     0.12600
C666        C  0.02259935  0.48692573  0.56417058     0.62200
F667        F  0.50559570  0.48577629  0.89252662    -0.23000
F668        F  0.43384170  0.45522956  0.91610820    -0.20300
F669        F  0.49770955  0.40013386  0.90749742    -0.20000
F670        F  0.05621930  0.53173639  0.07153096    -0.20100
F671        F  0.02928187  0.43870105  0.58082039    -0.20400
F672        F  0.97546038  0.50419825  0.57639575    -0.23100
C673        C  0.18235589  0.44797192  0.92804528    -0.05900
C674        C  0.16374686  0.42656251  0.89843918     0.00000
C675        C  0.13132470  0.38470668  0.90429273    -0.08500
C676        C  0.11410105  0.37087023  0.93991944    -0.05900
C677        C  0.12708789  0.39741433  0.97106694     0.00000
C678        C  0.16961809  0.42855779  0.96336021    -0.08400
C679        C  0.21135751  0.42958536  0.98531564     0.61900
H680        H  0.21182903  0.47509254  0.92281281     0.12600
H681        H  0.08931263  0.33862303  0.94321884     0.12600
C682        C  0.11496528  0.35460524  0.87290023     0.62200
F683        F  0.25342632  0.41143353  0.96393201    -0.23000
F684        F  0.20663205  0.39638986  0.01463122    -0.20300
F685        F  0.21725364  0.48222668  0.99620375    -0.20000
F686        F  0.15456167  0.33479027  0.84959759    -0.20100
F687        F  0.08750102  0.38976238  0.85469721    -0.20400
F688        F  0.08757557  0.31095911  0.88404781    -0.23100
C689        C  0.14293872  0.39513316  0.60260926    -0.05900
C690        C  0.16433553  0.44544072  0.60234793     0.00000
C691        C  0.15773302  0.48088094  0.57341870    -0.08500
C692        C  0.13301838  0.46244231  0.54534704    -0.05900
C693        C  0.11420658  0.41020527  0.54411239     0.00000
C694        C  0.11368456  0.37922750  0.57707361    -0.08400
C695        C  0.08024605  0.33362169  0.59060424     0.61900
H696        H  0.14651909  0.36841102  0.62494029     0.12600
H697        H  0.12872285  0.48908072  0.52315771     0.12600
C698        C  0.17734309  0.53744603  0.57097748     0.62200
F699        F  0.07034989  0.33525029  0.62791734    -0.23000
F700        F  0.10169666  0.28306580  0.58106083    -0.20300
F701        F  0.03590368  0.33857564  0.57927108    -0.20000
F702        F  0.22658400  0.53405577  0.57124415    -0.20100
F703        F  0.15526064  0.56923917  0.59955346    -0.20400
F704        F  0.16861903  0.56369242  0.53988408    -0.23100
C705        C  0.08872698  0.23386308  0.00015402    -0.05900
C706        C  0.04270582  0.22598570  0.50621906     0.00000
C707        C  0.01015002  0.27122443  0.50899234    -0.08500
C708        C  0.02797833  0.32327930  0.51157358    -0.05900
C709        C  0.07781613  0.33301484  0.51025141     0.00000
C710        C  0.10803025  0.28515211  0.00348264    -0.08400
C711        C  0.16297432  0.28453319  0.00207837     0.61900
H712        H  0.11219986  0.19792137  0.99381417     0.12600
H713        H  0.00179699  0.35670154  0.51607685     0.12600
C714        C  0.45183025  0.26354017  0.52052709     0.62200
F715        F  0.18353889  0.23214693  0.00024493    -0.23000
F716        F  0.17787380  0.31373836  0.53575172    -0.20300
F717        F  0.18481645  0.31029412  0.97221892    -0.20000
F718        F  0.44137509  0.22972206  0.54953456    -0.20100
F719        F  0.43634428  0.24088098  0.49051660    -0.20400
F720        F  0.42626919  0.31255807  0.52848085    -0.23100
C721        C  0.59220887  0.39421166  0.00765555    -0.02600
C722        C  0.94097163  0.56231967  0.47253852    -0.02600
Zr723      Zr  0.73592444  0.55429477  0.18719710     2.17500
O724        O  0.66468879  0.59510579  0.16598334    -0.51400
O725        O  0.79445393  0.56941410  0.13382986    -0.74600
O726        O  0.73558202  0.65318972  0.19442539    -0.81400
O727        O  0.69800270  0.42025278  0.15453365    -0.83200
O728        O  0.76696588  0.67311820  0.24566148    -0.78800
O729        O  0.69865325  0.50925532  0.14008537    -0.90400
O730        O  0.86245287  0.51916968  0.14073815    -0.76400
O731        O  0.81035514  0.56666700  0.20946905    -0.85900
O732        O  0.78064071  0.46963992  0.17764599    -0.85600
O733        O  0.71499946  0.57633467  0.25062900    -0.72300
O734        O  0.68723732  0.48851708  0.22031795    -0.84500
Zr735      Zr  0.78757244  0.43784001  0.29607371     2.26400
Zr736      Zr  0.79038665  0.58773691  0.27247601     2.06300
Zr737      Zr  0.73290376  0.40442682  0.21039684     2.10000
Zr738      Zr  0.85422776  0.48151032  0.20041066     1.78800
O739        O  0.65664608  0.36019687  0.22166663    -0.93300
O740        O  0.92121671  0.54136132  0.19840197    -0.41100
O741        O  0.80787623  0.41434901  0.23307438    -0.77700
O742        O  0.83638434  0.50342744  0.26322419    -0.96400
O743        O  0.74289399  0.52222703  0.30596064    -0.89700
O744        O  0.71328997  0.42459238  0.27374247    -0.92500
C745        C  0.83720201  0.54995774  0.12250192     1.01200
C746        C  0.68868116  0.45985899  0.13385518     1.14100
C747        C  0.74710072  0.68687661  0.21795970     1.04900
O748        O  0.86571609  0.63322414  0.25903409    -0.94700
O749        O  0.83174133  0.57351459  0.32523649    -0.90400
O750        O  0.82911786  0.48391487  0.33953357    -0.83600
C751        C  0.84124689  0.53272568  0.34469875     1.11600
O752        O  0.60059717  0.56113916  0.26550485    -0.96700
Zr753      Zr  0.66890342  0.50917725  0.28379854     1.88900
O754        O  0.73059776  0.42605343  0.35065201    -0.73300
O755        O  0.75762529  0.65173406  0.32069436    -0.52600
O756        O  0.64107372  0.58267159  0.32681631    -0.97300
O757        O  0.59970992  0.45330676  0.28228048    -0.54500
O758        O  0.65902476  0.46828398  0.34344804    -0.73800
C759        C  0.68655633  0.44067999  0.36196975     0.98500
O760        O  0.85424191  0.39308073  0.32144213    -0.62700
O761        O  0.76436418  0.33806302  0.16318306    -0.57500
O762        O  0.79132450  0.33947559  0.28726909    -0.94100
O763        O  0.75806842  0.32009748  0.23688552    -0.92600
O764        O  0.88552678  0.40626603  0.15990158    -0.92900
O765        O  0.92420257  0.43246735  0.21814783    -0.91700
C766        C  0.77892275  0.30616916  0.26397365     1.17300
H767        H  0.78653428  0.45936932  0.15241073     0.33300
H768        H  0.86658071  0.50582088  0.27256482     0.44100
H769        H  0.69650454  0.39530727  0.28605792     0.37700
H770        H  0.69560846  0.60980250  0.25391082     0.34100
H771        H  0.94548683  0.52612138  0.17873567     0.25900
H772        H  0.77699075  0.68427587  0.31657488     0.31900
H773        H  0.66357264  0.58083242  0.34494615     0.37800
H774        H  0.86927452  0.37410280  0.17038184     0.32200
H775        H  0.79482848  0.32259824  0.17012365     0.31100
H776        H  0.65336294  0.34179228  0.19856217     0.32800
H777        H  0.57832694  0.46235701  0.30504239     0.31800
H778        H  0.91153872  0.41307301  0.24019968     0.35800
H779        H  0.83973353  0.36532325  0.33794660     0.28500
H780        H  0.67409906  0.63024780  0.15528166     0.32700
H781        H  0.57461835  0.56052918  0.28621224     0.35600
H782        H  0.74204015  0.30794433  0.16623175     0.28200
H783        H  0.87337192  0.37220038  0.30123727     0.41100
H784        H  0.86139567  0.66627634  0.27466051     0.31100
H785        H  0.90939594  0.57599827  0.18880761     0.38700
H786        H  0.61178837  0.41548895  0.28528997     0.30600
H787        H  0.72539697  0.66342831  0.31499532     0.30600
H788        H  0.64188951  0.60437947  0.18796452     0.30900
C789        C  0.84739405  0.07676377  0.24557208    -0.02600
C790        C  0.69715915  0.92227771  0.20936750    -0.02600
Zr791      Zr  0.54001006  0.03897838  0.03238370     2.17500
O792        O  0.60197987  0.08578010  0.05865620    -0.51400
O793        O  0.48166996  0.05272094  0.08621362    -0.74600
O794        O  0.53545303  0.13723891  0.02548796    -0.81400
O795        O  0.58841302  0.90304393  0.06257876    -0.83200
O796        O  0.50110550  0.15651769  0.47877591    -0.78800
O797        O  0.58191681  0.99357161  0.07658135    -0.90400
O798        O  0.91494086  0.00612560  0.07655113    -0.76400
O799        O  0.96494863  0.05328299  0.00916802    -0.85900
O800        O  0.50049489  0.95573480  0.04036662    -0.85600
O801        O  0.55848125  0.05826484  0.47103388    -0.72300
O802        O  0.59342365  0.97031934  0.00025456    -0.84500
Zr803      Zr  0.99785340  0.92193788  0.41975183     2.26400
Zr804      Zr  0.48145999  0.07197497  0.45121521     2.06300
Zr805      Zr  0.55234931  0.88766013  0.00770575     2.10000
Zr806      Zr  0.92536148  0.96963443  0.01584024     1.78800
O807        O  0.63030697  0.83998823  0.99135759    -0.93300
O808        O  0.85285743  0.02897054  0.02121577    -0.41100
O809        O  0.98041317  0.89953616  0.48190399    -0.77700
O810        O  0.94546067  0.98990559  0.45370460    -0.96400
O811        O  0.53165181  0.00455673  0.41593620    -0.89700
O812        O  0.56845795  0.90531440  0.44378182    -0.92500
C813        C  0.93997916  0.03410814  0.09539965     1.01200
C814        C  0.59482797  0.94426833  0.08244259     1.14100
C815        C  0.52396569  0.17081844  0.00178365     1.04900
O816        O  0.90759239  0.11534125  0.46640965    -0.94700
O817        O  0.94937252  0.06589814  0.39417556    -0.90400
O818        O  0.95377332  0.97587210  0.37904524    -0.83600
C819        C  0.94135028  0.02593206  0.37409503     1.11600
O820        O  0.67569762  0.03400247  0.45502684    -0.96700
Zr821      Zr  0.60725417  0.98924073  0.43646236     1.88900
O822        O  0.54999826  0.90510141  0.36955716    -0.73300
O823        O  0.51371035  0.13344131  0.40435007    -0.52600
O824        O  0.63886745  0.06347643  0.39922796    -0.97300
O825        O  0.67381377  0.92115069  0.42871065    -0.54500
O826        O  0.60964462  0.96293446  0.37408735    -0.73800
C827        C  0.58735117  0.93000247  0.35642820     0.98500
O828        O  0.94988630  0.86697495  0.38506117    -0.62700
O829        O  0.02016266  0.82237401  0.05032051    -0.57500
O830        O  0.98515885  0.82575687  0.43473986    -0.94100
O831        O  0.52296627  0.80265905  0.48366820    -0.92600
O832        O  0.89973771  0.89324451  0.05331648    -0.92900
O833        O  0.85855205  0.92650213  0.99360769    -0.91700
C834        C  0.99937946  0.79171482  0.45747550     1.17300
H835        H  0.99539779  0.94491472  0.06309188     0.33300
H836        H  0.91505081  0.99398351  0.44454476     0.44100
H837        H  0.58689138  0.87581704  0.43037882     0.37700
H838        H  0.57637654  0.09085834  0.46830150     0.34100
H839        H  0.83304672  0.01753214  0.04356382     0.25900
H840        H  0.49348401  0.16749799  0.40870366     0.31900
H841        H  0.66680489  0.04697469  0.38310167     0.37800
H842        H  0.86536769  0.90193962  0.06217462     0.32200
H843        H  0.55962451  0.80403562  0.05965914     0.31100
H844        H  0.62348237  0.80731267  0.97762679     0.32800
H845        H  0.69395258  0.92950713  0.44756335     0.31800
H846        H  0.87531425  0.90814595  0.47096341     0.35800
H847        H  0.91676879  0.88346606  0.38967265     0.28500
H848        H  0.58477677  0.11336378  0.07578050     0.32700
H849        H  0.67469852  0.02567458  0.48090017     0.35600
H850        H  0.00165744  0.84494909  0.06994898     0.28200
H851        H  0.96119855  0.87420864  0.35941489     0.41100
H852        H  0.91100775  0.13816022  0.48774396     0.31100
H853        H  0.86350706  0.06531690  0.02726661     0.38700
H854        H  0.69344127  0.93053527  0.40578960     0.30600
H855        H  0.54551081  0.14272964  0.41057327     0.30600
H856        H  0.61919227  0.10679366  0.03892357     0.30900
C857        C  0.66081716  0.87844136  0.27042942    -0.05900
C858        C  0.65987420  0.92389138  0.24665754     0.00000
C859        C  0.62974570  0.97079910  0.26157824    -0.08500
C860        C  0.60326968  0.96763017  0.29633074    -0.05900
C861        C  0.60613571  0.92255647  0.31802847     0.00000
C862        C  0.63451860  0.87677895  0.30497985    -0.08400
C863        C  0.63920744  0.82739887  0.32859125     0.61900
H864        H  0.68593850  0.84455610  0.26425111     0.12600
H865        H  0.58222814  0.00263160  0.30862840     0.12600
C866        C  0.62827423  0.02768212  0.24570718     0.62200
F867        F  0.66971089  0.78653414  0.31135180    -0.23000
F868        F  0.59449727  0.80631129  0.33786240    -0.20300
F869        F  0.65715597  0.84239553  0.35963714    -0.20000
F870        F  0.62280572  0.02644197  0.21005886    -0.20100
F871        F  0.66921918  0.05355119  0.25098526    -0.20400
F872        F  0.58988096  0.06028219  0.26233794    -0.23100
C873        C  0.66974591  0.93016598  0.10861577    -0.05900
C874        C  0.61990252  0.93506864  0.11405469     0.00000
C875        C  0.59520702  0.93288091  0.14912451    -0.08500
C876        C  0.62138731  0.93002615  0.17825685    -0.05900
C877        C  0.67236356  0.92929511  0.17430274     0.00000
C878        C  0.69707248  0.92509459  0.13743803    -0.08400
C879        C  0.75128945  0.91660684  0.12648185     0.61900
H880        H  0.68698638  0.93033587  0.08093822     0.12600
H881        H  0.60102488  0.92662302  0.20453451     0.12600
C882        C  0.54112572  0.93144184  0.15549903     0.62200
F883        F  0.76460382  0.91868315  0.08954363    -0.23000
F884        F  0.76726874  0.86620633  0.13660236    -0.20300
F885        F  0.77506782  0.95678369  0.14104160    -0.20000
F886        F  0.52746415  0.88705894  0.13711204    -0.20100
F887        F  0.52137778  0.97896923  0.14331313    -0.20400
F888        F  0.52341936  0.92642417  0.19153249    -0.23100
C889        C  0.77667204  0.05197595  0.21429240    -0.05900
C890        C  0.80246893  0.03871119  0.24324104     0.00000
C891        C  0.78923674  0.98878626  0.26156924    -0.08500
C892        C  0.75533030  0.95664869  0.24782946    -0.05900
C893        C  0.73292066  0.96758004  0.21696794     0.00000
C894        C  0.74238231  0.02007559  0.20086305    -0.08400
C895        C  0.71932289  0.05138823  0.17166847     0.61900
H896        H  0.78467924  0.08978899  0.20083706     0.12600
H897        H  0.74653359  0.91913031  0.26100463     0.12600
C898        C  0.80663741  0.96601325  0.29584472     0.62200
F899        F  0.70017642  0.10103059  0.18611003    -0.23000
F900        F  0.68325363  0.02784905  0.15725658    -0.20300
F901        F  0.75463007  0.06192894  0.14333884    -0.20000
F902        F  0.78918613  0.99923104  0.32500309    -0.20100
F903        F  0.85586740  0.95852847  0.29181796    -0.20400
F904        F  0.78975547  0.91525157  0.30494703    -0.23100
C905        C  0.85275254  0.07232502  0.31187697    -0.05900
C906        C  0.87720660  0.05851607  0.27677730     0.00000
C907        C  0.92588157  0.03407329  0.27542737    -0.08500
C908        C  0.94415616  0.02530230  0.30841539    -0.05900
C909        C  0.91815251  0.03856145  0.34194888     0.00000
C910        C  0.87168614  0.06261949  0.34399452    -0.08400
C911        C  0.84138639  0.07695517  0.37996784     0.61900
H912        H  0.81670113  0.09044248  0.31435046     0.12600
H913        H  0.97957331  0.00631672  0.30885522     0.12600
C914        C  0.95900273  0.01020838  0.24248825     0.62200
F915        F  0.79467186  0.09364383  0.37604348    -0.23000
F916        F  0.86152996  0.11882293  0.39662959    -0.20300
F917        F  0.83923524  0.03202272  0.40186564    -0.20000
F918        F  0.96609330  0.04625757  0.21465957    -0.20100
F919        F  0.94099172  0.96254263  0.23169860    -0.20400
F920        F  0.00465393  0.99596613  0.25015426    -0.23100
C921        C  0.91323647  0.09906119  0.14501096    -0.05900
C922        C  0.91994560  0.04529575  0.13324842     0.00000
C923        C  0.90454012  0.00371773  0.15674275    -0.08500
C924        C  0.88350169  0.01789414  0.19184577    -0.05900
C925        C  0.87548415  0.07230132  0.20541764     0.00000
C926        C  0.88597136  0.11441760  0.17842684    -0.08400
C927        C  0.86633496  0.17386914  0.17910133     0.61900
H928        H  0.92596894  0.12963596  0.12584904     0.12600
H929        H  0.87119537  0.98504474  0.20902290     0.12600
C930        C  0.90845399  0.94412939  0.14512592     0.62200
F931        F  0.86748607  0.19420737  0.14462999    -0.23000
F932        F  0.89420022  0.20718895  0.19644398    -0.20300
F933        F  0.81870958  0.17937605  0.19360562    -0.20000
F934        F  0.94843983  0.93219432  0.12041211    -0.20100
F935        F  0.86855683  0.93191873  0.12949838    -0.20400
F936        F  0.91190980  0.91073104  0.17413565    -0.23100
C937        C  0.68476218  0.82196992  0.19930343    -0.05900
C938        C  0.71957292  0.86108657  0.20393498     0.00000
C939        C  0.76679154  0.83821585  0.20850555    -0.08500
C940        C  0.77259813  0.78180623  0.21473078    -0.05900
C941        C  0.73596887  0.74571407  0.21326472     0.00000
C942        C  0.69074779  0.76643740  0.20609051    -0.08400
C943        C  0.64575490  0.73373897  0.20878345     0.61900
H944        H  0.64895276  0.83562386  0.19529088     0.12600
H945        H  0.80757840  0.76486554  0.21922361     0.12600
C946        C  0.81454131  0.86560569  0.20338732     0.62200
F947        F  0.60750212  0.76298540  0.22850679    -0.23000
F948        F  0.65043467  0.68503089  0.22602890    -0.20300
F949        F  0.63458140  0.72409129  0.17456946    -0.20000
F950        F  0.83283701  0.86755487  0.23575518    -0.20100
F951        F  0.81243722  0.91668531  0.18986374    -0.20400
F952        F  0.84676696  0.83504642  0.17891844    -0.21300
C953        C  0.84146479  0.23444273  0.26849132    -0.05900
C954        C  0.79313188  0.24793590  0.26674040     0.00000
C955        C  0.76088313  0.20608937  0.26568202    -0.08500
C956        C  0.77932076  0.15190572  0.26282913    -0.05900
C957        C  0.82961161  0.13780830  0.25628327     0.00000
C958        C  0.86098204  0.18057739  0.26344835    -0.08400
C959        C  0.91492362  0.17277386  0.26553506     0.61900
H960        H  0.86456741  0.26753268  0.27206544     0.12600
H961        H  0.75345192  0.12088421  0.26453725     0.12600
C962        C  0.70719089  0.21860036  0.26726150     0.62200
F963        F  0.93785227  0.22149021  0.26229458    -0.23000
F964        F  0.93761841  0.13933814  0.23825554    -0.20300
F965        F  0.92222232  0.15176896  0.29841279    -0.20000
F966        F  0.69780564  0.24142325  0.23527726    -0.20100
F967        F  0.69131933  0.25458262  0.29543229    -0.20400
F968        F  0.68107785  0.17232336  0.27249449    -0.23100
C969        C  0.93522684  0.56315356  0.40531705    -0.05900
C970        C  0.91001168  0.55618482  0.44044873     0.00000
C971        C  0.85803282  0.55313948  0.44215943    -0.08500
C972        C  0.83940634  0.53957675  0.41029143    -0.05900
C973        C  0.86617377  0.54256344  0.37631636     0.00000
C974        C  0.91445528  0.55667628  0.37348097    -0.08400
C975        C  0.94431513  0.56302671  0.33694416     0.61900
H976        H  0.97225102  0.57388253  0.40280891     0.12600
H977        H  0.80178147  0.53054689  0.41152572     0.12600
C978        C  0.81834926  0.56806606  0.47374063     0.62200
F979        F  0.99142308  0.57436169  0.33990519    -0.23000
F980        F  0.92471219  0.60529166  0.31890867    -0.20300
F981        F  0.94480175  0.51546144  0.31685385    -0.20000
F982        F  0.77769932  0.58984818  0.46094632    -0.20100
F983        F  0.82997796  0.60740117  0.49685520    -0.20400
F984        F  0.80497421  0.52220012  0.49260441    -0.23100
C985        C  0.90187968  0.60633062  0.03558621    -0.05900
C986        C  0.90602828  0.56021235  0.01140944     0.00000
C987        C  0.88565189  0.51095373  0.02678081    -0.08500
C988        C  0.86408956  0.51122965  0.06289968    -0.05900
C989        C  0.85789896  0.55769278  0.08454166     0.00000
C990        C  0.87618657  0.60647862  0.07084255    -0.08400
C991        C  0.86968890  0.65786599  0.09406691     0.61900
H992        H  0.91966721  0.64290024  0.02784818     0.12600
H993        H  0.85154384  0.47372976  0.07505259     0.12600
C994        C  0.88688080  0.45517480  0.00860567     0.62200
F995        F  0.89042094  0.70175426  0.07629229    -0.23000
F996        F  0.89049532  0.64968646  0.12505565    -0.20300
F997        F  0.82112802  0.67078963  0.10348204    -0.20000
F998        F  0.93382007  0.42872416  0.51214367    -0.20100
F999        F  0.88677141  0.45724008  0.47148088    -0.20400
F1000       F  0.84684892  0.42678831  0.02183989    -0.23100
C1001       C  0.92656156  0.66450994  0.46392704    -0.05900
C1002       C  0.96193769  0.62158111  0.46570101     0.00000
C1003       C  0.01153548  0.63729429  0.45804120    -0.08500
C1004       C  0.51891459  0.69252476  0.45675057    -0.05900
C1005       C  0.98483276  0.73432917  0.45707773     0.00000
C1006       C  0.93671591  0.71966167  0.45963168    -0.08400
C1007       C  0.89573209  0.76210288  0.45958677     0.61900
H1008       H  0.88963609  0.65456318  0.46617309     0.12600
H1009       H  0.55570904  0.70510172  0.45403986     0.12600
C1010       C  0.55469340  0.59958736  0.44592479     0.62200
F1011       F  0.85113848  0.73947514  0.46496792    -0.23000
F1012       F  0.89992116  0.78772706  0.42679206    -0.20300
F1013       F  0.89709187  0.80011757  0.48682656    -0.20000
F1014       F  0.54576085  0.55449497  0.42665335    -0.20100
F1015       F  0.57573041  0.58475306  0.47577434    -0.20400
F1016       F  0.58864570  0.62642812  0.42309939    -0.23100
C1017       C  0.52511074  0.42767018  0.46977070    -0.05900
C1018       C  0.54707685  0.43482348  0.50146636     0.00000
C1019       C  0.52859141  0.48225818  0.52251684    -0.08500
C1020       C  0.50374839  0.52395361  0.50629990    -0.05900
C1021       C  0.98281052  0.51718766  0.47559381     0.00000
C1022       C  0.99722375  0.46728751  0.45505018    -0.08400
C1023       C  0.98556264  0.45213934  0.41717604     0.61900
H1024       H  0.03652418  0.39127030  0.45529799     0.12600
H1025       H  0.49641800  0.56189550  0.52144325     0.12600
C1026       C  0.52604152  0.49321091  0.06368916     0.62200
F1027       F  0.00907762  0.48514456  0.39170696    -0.23000
F1028       F  0.93724797  0.45437293  0.41484506    -0.20300
F1029       F  0.00116213  0.39943784  0.40665507    -0.20000
F1030       F  0.55313446  0.52689681  0.57346472    -0.20100
F1031       F  0.53346127  0.44686326  0.08217800    -0.20400
F1032       F  0.47998911  0.51246801  0.07761813    -0.23100
C1033       C  0.68500548  0.44520062  0.42864671    -0.05900
C1034       C  0.66630945  0.42416698  0.39893000     0.00000
C1035       C  0.63378703  0.38237808  0.40471573    -0.08500
C1036       C  0.61667927  0.36817025  0.44031987    -0.05900
C1037       C  0.62880938  0.39529974  0.47152071     0.00000
C1038       C  0.67136177  0.42655188  0.46410954    -0.08400
C1039       C  0.71198292  0.42921056  0.48705635     0.61900
H1040       H  0.71455488  0.47223570  0.42353804     0.12600
H1041       H  0.59191964  0.33586080  0.44359176     0.12600
C1042       C  0.61717909  0.35275708  0.37324809     0.62200
F1043       F  0.75493360  0.41116374  0.46680093    -0.23000
F1044       F  0.70648610  0.39685565  0.51677428    -0.20300
F1045       F  0.71677840  0.48239531  0.49743711    -0.20000
F1046       F  0.65665846  0.33096434  0.35067677    -0.20100
F1047       F  0.59158318  0.38878329  0.35428599    -0.20400
F1048       F  0.58780697  0.31071804  0.38432863    -0.23100
C1049       C  0.64140456  0.39627900  0.10222324    -0.05900
C1050       C  0.66343425  0.44630806  0.10170212     0.00000
C1051       C  0.65800183  0.48091149  0.07211354    -0.08500
C1052       C  0.63385687  0.46198360  0.04380198    -0.05900
C1053       C  0.61371054  0.41038190  0.04314842     0.00000
C1054       C  0.61247529  0.38015671  0.07640724    -0.08400
C1055       C  0.57690921  0.33679765  0.09013176     0.61900
H1056       H  0.64401169  0.37025092  0.12504028     0.12600
H1057       H  0.63028778  0.48812637  0.02123301     0.12600
C1058       C  0.67749534  0.53751066  0.06951041     0.62200
F1059       F  0.56780280  0.33786375  0.12747589    -0.23000
F1060       F  0.59528076  0.28520317  0.07990418    -0.20300
F1061       F  0.53256365  0.34583213  0.07925891    -0.20000
F1062       F  0.72635642  0.53466644  0.07136789    -0.20100
F1063       F  0.65382299  0.57004925  0.09719249    -0.20400
F1064       F  0.67059384  0.56245392  0.03755176    -0.23100
C1065       C  0.58726983  0.23222345  0.50527333    -0.05900
C1066       C  0.53876437  0.22710754  0.00514158     0.00000
C1067       C  0.50655146  0.27254994  0.00933531    -0.08500
C1068       C  0.52506909  0.32438503  0.01188523    -0.05900
C1069       C  0.57523912  0.33349879  0.00973599     0.00000
C1070       C  0.60696974  0.28378420  0.50668482    -0.08400
C1071       C  0.66189730  0.28308695  0.50570191     0.61900
H1072       H  0.61054732  0.19575636  0.50137845     0.12600
H1073       H  0.49924096  0.35806033  0.01731296     0.12600
C1074       C  0.95325874  0.26267541  0.02095576     0.62200
F1075       F  0.68207947  0.23070103  0.50600751    -0.23000
F1076       F  0.67409626  0.30969433  0.03589242    -0.20300
F1077       F  0.68421962  0.30629372  0.47497429    -0.20000
F1078       F  0.94387016  0.22350490  0.04686866    -0.20100
F1079       F  0.93724775  0.24596116  0.98954279    -0.20400
F1080       F  0.92749870  0.31005132  0.03323906    -0.23100
C1081       C  0.59103220  0.39258053  0.50809083    -0.02600
C1082       C  0.93845449  0.56262460  0.97275461    -0.02600
Zr1083     Zr  0.73679888  0.55125017  0.68652597     2.17500
O1084       O  0.66417427  0.59089450  0.66689929    -0.51400
O1085       O  0.79354775  0.56514326  0.63210051    -0.74600
O1086       O  0.73631274  0.64999081  0.69346542    -0.81400
O1087       O  0.69941246  0.41676817  0.65410698    -0.83200
O1088       O  0.76515446  0.67014693  0.74573191    -0.78800
O1089       O  0.69858385  0.50605481  0.64028243    -0.90400
O1090       O  0.86422954  0.52170188  0.64050905    -0.76400
O1091       O  0.81039248  0.56602248  0.70947050    -0.85900
O1092       O  0.78340524  0.46794676  0.67675323    -0.85600
O1093       O  0.71454318  0.57287497  0.74975622    -0.72300
O1094       O  0.68943420  0.48408991  0.71894542    -0.84500
Zr1095     Zr  0.78955567  0.43567288  0.79531422     2.26400
Zr1096     Zr  0.78887041  0.58564638  0.77266044     2.06300
Zr1097     Zr  0.73685226  0.40130392  0.70907549     2.10000
Zr1098     Zr  0.85637573  0.48233516  0.69992043     1.78800
O1099       O  0.66204860  0.35385215  0.71712417    -0.93300
O1100       O  0.92133193  0.54429102  0.70170802    -0.41100
O1101       O  0.81137442  0.41343590  0.73222965    -0.77700
O1102       O  0.83719631  0.50278353  0.76296575    -0.96400
O1103       O  0.74271781  0.51860951  0.80536774    -0.89700
O1104       O  0.71604759  0.42100408  0.77242429    -0.92500
C1105       C  0.83739110  0.54892358  0.62143446     1.01200
C1106       C  0.68888908  0.45666101  0.63395590     1.14100
C1107       C  0.74657478  0.68362325  0.71747698     1.04900
O1108       O  0.85942542  0.64042600  0.76414421    -0.94700
O1109       O  0.83039525  0.57302034  0.82526327    -0.90400
O1110       O  0.83142126  0.48279503  0.83813746    -0.83600
C1111       C  0.84152545  0.53212865  0.84403822     1.11600
O1112       O  0.60010086  0.55310729  0.76311425    -0.96700
Zr1113     Zr  0.66957150  0.50436436  0.78220796     1.88900
O1114       O  0.73211387  0.42566335  0.85001894    -0.73300
O1115       O  0.74711595  0.64337621  0.82145771    -0.52600
O1116       O  0.63774756  0.57802251  0.82402967    -0.97300
O1117       O  0.60374054  0.44387409  0.77951317    -0.54500
O1118       O  0.65991253  0.46587205  0.84226170    -0.73800
C1119       C  0.68786970  0.43979179  0.86114717     0.98500
O1120       O  0.85432299  0.38992943  0.82239302    -0.62700
O1121       O  0.77502838  0.33720268  0.66260617    -0.57500
O1122       O  0.79387363  0.33702697  0.78621325    -0.94100
O1123       O  0.75966000  0.31683765  0.73641957    -0.92600
O1124       O  0.88941778  0.40941444  0.65795683    -0.92900
O1125       O  0.92863814  0.43415374  0.71450754    -0.91700
C1126       C  0.78088988  0.30329084  0.76337723     1.17300
H1127       H  0.78954520  0.45787152  0.65149101     0.33300
H1128       H  0.86708985  0.50595031  0.77261123     0.44100
H1129       H  0.69987727  0.39131524  0.78470759     0.37700
H1130       H  0.69450264  0.60590800  0.75284011     0.34100
H1131       H  0.90916520  0.57906650  0.69253674     0.25900
H1132       H  0.76630284  0.67614357  0.82135408     0.31900
H1133       H  0.65889436  0.57716581  0.84308567     0.37800
H1134       H  0.91337639  0.42660295  0.64025520     0.32200
H1135       H  0.80610355  0.32552368  0.67041188     0.31100
H1136       H  0.65891347  0.34026001  0.74205050     0.32800
H1137       H  0.57894860  0.45592349  0.79977126     0.31800
H1138       H  0.92133516  0.42624619  0.74048332     0.35800
H1139       H  0.83900054  0.36201944  0.83837614     0.28500
H1140       H  0.67270115  0.62641467  0.65640737     0.32700
H1141       H  0.57387790  0.55192847  0.78361676     0.35600
H1142       H  0.75547598  0.30464547  0.66535512     0.28200
H1143       H  0.87436525  0.36929338  0.80250013     0.41100
H1144       H  0.84966087  0.67413962  0.77846668     0.31100
H1145       H  0.92227922  0.55166735  0.72761688     0.38700
H1146       H  0.61577226  0.40789248  0.78683886     0.30600
H1147       H  0.71683030  0.65619263  0.81290327     0.30600
H1148       H  0.64175253  0.59922713  0.68922412     0.30900
C1149       C  0.84893532  0.07346431  0.74473004    -0.02600
C1150       C  0.69968411  0.91845417  0.70810311    -0.02600
Zr1151     Zr  0.53990658  0.03576169  0.53334605     2.17500
O1152       O  0.60601158  0.07777101  0.55744727    -0.51400
O1153       O  0.48225857  0.05164099  0.58731180    -0.74600
O1154       O  0.53747007  0.13421561  0.52754654    -0.81400
O1155       O  0.59264717  0.89883001  0.55969564    -0.83200
O1156       O  0.50569869  0.15768501  0.97357957    -0.78800
O1157       O  0.58051376  0.98779036  0.57736594    -0.90400
O1158       O  0.91978319  0.00318781  0.57661738    -0.76400
O1159       O  0.96817703  0.05155163  0.50990050    -0.85900
O1160       O  0.50088780  0.95232721  0.54114585    -0.85600
O1161       O  0.56207730  0.05978242  0.97006922    -0.72300
O1162       O  0.59240264  0.96841061  0.49914638    -0.84500
Zr1163     Zr  0.99502359  0.92186937  0.92054193     2.26400
Zr1164     Zr  0.48640871  0.07202968  0.94766339     2.06300
Zr1165     Zr  0.55184291  0.88538987  0.50668376     2.10000
Zr1166     Zr  0.92979421  0.96710057  0.51591168     1.78800
O1167       O  0.62843665  0.83569340  0.48862095    -0.93300
O1168       O  0.85628299  0.02471726  0.52131629    -0.41100
O1169       O  0.97557966  0.90042624  0.98276094    -0.77700
O1170       O  0.94282813  0.99111084  0.95343542    -0.96400
O1171       O  0.53753982  0.00313495  0.91461467    -0.89700
O1172       O  0.57214233  0.90570369  0.94480783    -0.92500
C1173       C  0.94459461  0.03144099  0.59548939     1.01200
C1174       C  0.59662810  0.93897416  0.58124289     1.14100
C1175       C  0.52295268  0.16868117  0.50545220     1.04900
O1176       O  0.90697244  0.11802462  0.96316558    -0.94700
O1177       O  0.95124011  0.06521886  0.89224333    -0.90400
O1178       O  0.95238694  0.97471144  0.87904152    -0.83600
C1179       C  0.94206674  0.02484086  0.87301559     1.11600
O1180       O  0.68125436  0.02592265  0.96024698    -0.96700
Zr1181     Zr  0.61171889  0.98949841  0.93753076     1.88900
O1182       O  0.55684433  0.90773014  0.86931591    -0.73300
O1183       O  0.51791763  0.13187618  0.89952757    -0.52600
O1184       O  0.63502773  0.06912635  0.90236391    -0.97300
O1185       O  0.68374891  0.92903621  0.92872482    -0.54500
O1186       O  0.61919620  0.96109604  0.87533794    -0.73800
C1187       C  0.59586472  0.93026855  0.85704834     0.98500
O1188       O  0.94558790  0.86743108  0.88672973    -0.62700
O1189       O  0.03186642  0.81820272  0.54818769    -0.57500
O1190       O  0.98363058  0.82538400  0.93415546    -0.94100
O1191       O  0.52328719  0.80432208  0.98577871    -0.92600
O1192       O  0.90847611  0.88786288  0.55195858    -0.92900
O1193       O  0.86266462  0.92224775  0.49545585    -0.91700
C1194       C  0.99805479  0.79132546  0.95674254     1.17300
H1195       H  0.00062554  0.94260139  0.56236729     0.33300
H1196       H  0.91278417  0.99560535  0.94379361     0.44100
H1197       H  0.59064469  0.87568442  0.93208070     0.37700
H1198       H  0.58004664  0.09234020  0.96757367     0.34100
H1199       H  0.83579564  0.01104547  0.54266041     0.25900
H1200       H  0.49510101  0.16398934  0.90172411     0.31900
H1201       H  0.61256029  0.07175132  0.88423274     0.37800
H1202       H  0.87479087  0.89584795  0.56301996     0.32200
H1203       H  0.55417798  0.80336174  0.56018797     0.31100
H1204       H  0.62147828  0.79710692  0.49314291     0.32800
H1205       H  0.70339856  0.94254039  0.90692348     0.31800
H1206       H  0.87212929  0.91133066  0.96957534     0.35800
H1207       H  0.91274740  0.88469407  0.89127485     0.28500
H1208       H  0.59104181  0.10657744  0.57459562     0.32700
H1209       H  0.70320071  0.03652000  0.93873229     0.35600
H1210       H  0.01686762  0.83913049  0.56987013     0.28200
H1211       H  0.95688428  0.87361446  0.86093652     0.41100
H1212       H  0.91074220  0.15555220  0.95435490     0.31100
H1213       H  0.86577335  0.06070645  0.52917275     0.38700
H1214       H  0.67305862  0.89354856  0.92105026     0.30600
H1215       H  0.54782027  0.14546737  0.90682260     0.30600
H1216       H  0.62337787  0.09735454  0.53706043     0.30900
C1217       C  0.66193244  0.87459805  0.76900104    -0.05900
C1218       C  0.66258815  0.92046999  0.74542372     0.00000
C1219       C  0.63583034  0.96902052  0.76108812    -0.08500
C1220       C  0.61313503  0.96840582  0.79707189    -0.05900
C1221       C  0.61459477  0.92300724  0.81864626     0.00000
C1222       C  0.63874815  0.87507787  0.80463684    -0.08400
C1223       C  0.64340567  0.82596474  0.82849508     0.61900
H1224       H  0.68391594  0.83852101  0.76192672     0.12600
H1225       H  0.59559691  0.00528074  0.80973271     0.12600
C1226       C  0.63534970  0.02548373  0.74488701     0.62200
F1227       F  0.66903831  0.78241788  0.81013306    -0.23000
F1228       F  0.59823304  0.80899192  0.84172225    -0.20300
F1229       F  0.66697748  0.83999417  0.85707381    -0.20000
F1230       F  0.63658834  0.02404127  0.70840713    -0.20100
F1231       F  0.67361946  0.05316937  0.75416503    -0.20400
F1232       F  0.59369725  0.05562652  0.75812131    -0.23100
C1233       C  0.67174531  0.92152282  0.60730681    -0.05900
C1234       C  0.62201354  0.92935326  0.61280747     0.00000
C1235       C  0.59760239  0.93059085  0.64812752    -0.08500
C1236       C  0.62389365  0.92914334  0.67720722    -0.05900
C1237       C  0.67482214  0.92555173  0.67303300     0.00000
C1238       C  0.69911877  0.91771732  0.63622253    -0.08400
C1239       C  0.75320250  0.90752272  0.62558213     0.61900
H1240       H  0.68891807  0.91878823  0.57960808     0.12600
H1241       H  0.60357541  0.92925582  0.70369083     0.12600
C1242       C  0.54354279  0.93026443  0.65494549     0.62200
F1243       F  0.76700507  0.91039250  0.58873411    -0.23000
F1244       F  0.76785881  0.85633230  0.63537359    -0.20300
F1245       F  0.77760444  0.94634235  0.64091474    -0.20000
F1246       F  0.52896256  0.88716232  0.63584432    -0.20100
F1247       F  0.52426809  0.97891999  0.64401409    -0.20400
F1248       F  0.52640252  0.92352191  0.69092228    -0.23100
C1249       C  0.77811360  0.04883159  0.71397042    -0.05900
C1250       C  0.80408839  0.03538659  0.74269121     0.00000
C1251       C  0.79164358  0.98487188  0.76054154    -0.08500
C1252       C  0.75725348  0.95318561  0.74705311    -0.05900
C1253       C  0.73568203  0.96360034  0.71568107     0.00000
C1254       C  0.74559276  0.01587400  0.69934534    -0.08400
C1255       C  0.72606989  0.04551097  0.66791835     0.61900
H1256       H  0.78580191  0.08690323  0.70087598     0.12600
H1257       H  0.74790922  0.91605064  0.76055943     0.12600
C1258       C  0.81162116  0.96010846  0.79330720     0.62200
F1259       F  0.70602977  0.09590281  0.68026643    -0.23000
F1260       F  0.69185185  0.02132477  0.65170915    -0.20300
F1261       F  0.76410682  0.05434289  0.64125625    -0.20000
F1262       F  0.79658746  0.99156606  0.82370453    -0.20100
F1263       F  0.86085296  0.95253055  0.78690145    -0.20400
F1264       F  0.79510489  0.90904695  0.80198726    -0.23100
C1265       C  0.85392592  0.06959300  0.81087147    -0.05900
C1266       C  0.87858096  0.05553026  0.77588354     0.00000
C1267       C  0.92729945  0.03137122  0.77454585    -0.08500
C1268       C  0.94550575  0.02300805  0.80752231    -0.05900
C1269       C  0.91937677  0.03687235  0.84086403     0.00000
C1270       C  0.87293823  0.06064364  0.84294077    -0.08400
C1271       C  0.84260784  0.07443341  0.87900486     0.61900
H1272       H  0.81751785  0.08667661  0.81330494     0.12600
H1273       H  0.98091696  0.00407641  0.80811942     0.12600
C1274       C  0.96042523  0.00743329  0.74167781     0.62200
F1275       F  0.79671717  0.09415575  0.87510619    -0.23000
F1276       F  0.86401458  0.11384230  0.89698084    -0.20300
F1277       F  0.83840029  0.02825347  0.89969749    -0.20000
F1278       F  0.96766089  0.04355623  0.71391920    -0.20100
F1279       F  0.94229096  0.95991345  0.73080586    -0.20400
F1280       F  0.00599240  0.99295688  0.74942003    -0.23100
C1281       C  0.91739775  0.09566087  0.64532884    -0.05900
C1282       C  0.92442788  0.04195018  0.63335867     0.00000
C1283       C  0.90745576  0.00013011  0.65622478    -0.08500
C1284       C  0.88491348  0.01416653  0.69097533    -0.05900
C1285       C  0.87689213  0.06851909  0.70464132     0.00000
C1286       C  0.88799924  0.11059002  0.67790061    -0.08400
C1287       C  0.86623213  0.16899496  0.67734762     0.61900
H1288       H  0.93053593  0.12665962  0.62660454     0.12600
H1289       H  0.87213643  0.98122036  0.70787732     0.12600
C1290       C  0.91139454  0.94041110  0.64460591     0.62200
F1291       F  0.86537559  0.18616732  0.64229464    -0.23000
F1292       F  0.89374629  0.20494533  0.69298065    -0.20300
F1293       F  0.81897618  0.17379175  0.69277333    -0.20000
F1294       F  0.95018749  0.92845804  0.61872830    -0.20100
F1295       F  0.87048046  0.92757064  0.63053990    -0.20400
F1296       F  0.91673482  0.90724935  0.67345011    -0.23100
C1297       C  0.68674431  0.81871564  0.69708977    -0.05900
C1298       C  0.72162213  0.85728473  0.70288721     0.00000
C1299       C  0.76808825  0.83388607  0.70885688    -0.08500
C1300       C  0.77273639  0.77764667  0.71542787    -0.05900
C1301       C  0.73608108  0.74219862  0.71258586     0.00000
C1302       C  0.69175110  0.76323583  0.70400132    -0.08400
C1303       C  0.64655278  0.73105325  0.70568670     0.61900
H1304       H  0.65140590  0.83276510  0.69213026     0.12600
H1305       H  0.80702090  0.76020850  0.72111807     0.12600
C1306       C  0.81632498  0.86023585  0.70504463     0.62200
F1307       F  0.60774417  0.76098317  0.72416254    -0.23000
F1308       F  0.64996757  0.68274182  0.72361446    -0.20300
F1309       F  0.63708632  0.72080903  0.67108411    -0.20000
F1310       F  0.83264883  0.86219454  0.73814107    -0.20100
F1311       F  0.81587661  0.91102090  0.69095899    -0.20400
F1312       F  0.84941053  0.82873834  0.68181439    -0.21300
C1313       C  0.84391139  0.23161700  0.76644890    -0.05900
C1314       C  0.79522595  0.24501240  0.76623698     0.00000
C1315       C  0.76285993  0.20300648  0.76635625    -0.08500
C1316       C  0.78135170  0.14882756  0.76285850    -0.05900
C1317       C  0.83156130  0.13474343  0.75531272     0.00000
C1318       C  0.86330819  0.17767062  0.76146858    -0.08400
C1319       C  0.91737049  0.16979484  0.76302553     0.61900
H1320       H  0.86722640  0.26485788  0.76900135     0.12600
H1321       H  0.75559139  0.11765013  0.76508288     0.12600
C1322       C  0.70893941  0.21530946  0.77014393     0.62200
F1323       F  0.94012704  0.21864335  0.76090179    -0.23000
F1324       F  0.93983514  0.13785334  0.73488767    -0.20300
F1325       F  0.92526803  0.14703790  0.79526048    -0.20000
F1326       F  0.69722115  0.23964398  0.73927996    -0.20100
F1327       F  0.69476671  0.24983860  0.79940659    -0.20400
F1328       F  0.68322327  0.16873171  0.77531517    -0.23100
C1329       C  0.93408290  0.56248074  0.90546815    -0.05900
C1330       C  0.90811982  0.55609523  0.94044155     0.00000
C1331       C  0.85621799  0.55341451  0.94173106    -0.08500
C1332       C  0.83806333  0.54044293  0.90957204    -0.05900
C1333       C  0.86566942  0.54243490  0.87585166     0.00000
C1334       C  0.91400693  0.55592991  0.87339868    -0.08400
C1335       C  0.94479162  0.56083824  0.83705990     0.61900
H1336       H  0.97123621  0.57246345  0.90323110     0.12600
H1337       H  0.80043985  0.53177013  0.91032519     0.12600
C1338       C  0.81657346  0.56782990  0.97342371     0.62200
F1339       F  0.99113795  0.57480316  0.84047913    -0.23000
F1340       F  0.92477008  0.60052659  0.81715132    -0.20300
F1341       F  0.94740318  0.51162940  0.81854576    -0.20000
F1342       F  0.77464227  0.58633735  0.96095805    -0.20100
F1343       F  0.82742668  0.60933464  0.99524375    -0.20400
F1344       F  0.80550389  0.52260597  0.99359169    -0.23100
C1345       C  0.90584714  0.60439096  0.53593649    -0.05900
C1346       C  0.90873072  0.55916235  0.51117633     0.00000
C1347       C  0.88632883  0.51039247  0.52552746    -0.08500
C1348       C  0.86147363  0.51135543  0.56087746    -0.05900
C1349       C  0.85795455  0.55683270  0.58345459     0.00000
C1350       C  0.88005317  0.60427952  0.57108139    -0.08400
C1351       C  0.87739013  0.65391440  0.59573719     0.61900
H1352       H  0.92542905  0.64007044  0.52885996     0.12600
H1353       H  0.84609795  0.47477144  0.57235642     0.12600
C1354       C  0.89071492  0.45435172  0.50726351     0.62200
F1355       F  0.89975770  0.69746579  0.57875076    -0.23000
F1356       F  0.89940883  0.64145613  0.62562352    -0.20300
F1357       F  0.82972658  0.66965541  0.60688931    -0.20000
F1358       F  0.92708801  0.42495994  0.01532849    -0.20100
F1359       F  0.88587348  0.45843816  0.97254309    -0.20400
F1360       F  0.85465219  0.42119411  0.52176104    -0.23100
C1361       C  0.92487433  0.66476531  0.96307090    -0.05900
C1362       C  0.95989080  0.62164883  0.96551231     0.00000
C1363       C  0.00963294  0.63684300  0.95766775    -0.08500
C1364       C  0.51872106  0.69345666  0.96089812    -0.05900
C1365       C  0.98361319  0.73399747  0.95605105     0.00000
C1366       C  0.93541458  0.71973699  0.95847792    -0.08400
C1367       C  0.89473999  0.76235298  0.95739813     0.61900
H1368       H  0.88791895  0.65513114  0.96489278     0.12600
H1369       H  0.55553911  0.70565067  0.95943996     0.12600
C1370       C  0.55417827  0.60103894  0.94742052     0.62200
F1371       F  0.84994132  0.74094772  0.96585731    -0.23000
F1372       F  0.89746167  0.78321934  0.92315125    -0.20300
F1373       F  0.89800335  0.80398261  0.98190641    -0.20000
F1374       F  0.54477853  0.55700371  0.92730694    -0.20100
F1375       F  0.57607225  0.58449841  0.97653125    -0.20400
F1376       F  0.58756853  0.62908261  0.92487382    -0.23100
C1377       C  0.52639865  0.43008085  0.96985547    -0.05900
C1378       C  0.54833226  0.43701998  0.00154414     0.00000
C1379       C  0.52945914  0.48432181  0.02290641    -0.08500
C1380       C  0.50295985  0.52523765  0.00717823    -0.05900
C1381       C  0.97969574  0.51700324  0.97623728     0.00000
C1382       C  0.99217125  0.46576042  0.95688824    -0.08400
C1383       C  0.98103368  0.44999701  0.91890122     0.61900
H1384       H  0.02702174  0.38754976  0.95979224     0.12600
H1385       H  0.49514014  0.56311544  0.02232941     0.12600
C1386       C  0.52236260  0.48908353  0.56349693     0.62200
F1387       F  0.00594697  0.48175147  0.89336427    -0.23000
F1388       F  0.93301463  0.45347332  0.91550798    -0.20300
F1389       F  0.99573961  0.39673998  0.90922105    -0.20000
F1390       F  0.55744489  0.53197310  0.07129267    -0.20100
F1391       F  0.52837677  0.44147756  0.58101891    -0.20400
F1392       F  0.47581078  0.50812499  0.57605143    -0.23100
C1393       C  0.68629341  0.44544271  0.92775287    -0.05900
C1394       C  0.66758389  0.42403627  0.89818318     0.00000
C1395       C  0.63477503  0.38259657  0.90416220    -0.08500
C1396       C  0.61762035  0.36884606  0.93983479    -0.05900
C1397       C  0.62984895  0.39633517  0.97089942     0.00000
C1398       C  0.67266073  0.42709272  0.96326602    -0.08400
C1399       C  0.71372816  0.42873050  0.98583802     0.61900
H1400       H  0.71601007  0.47222173  0.92248440     0.12600
H1401       H  0.59247776  0.33692145  0.94319245     0.12600
C1402       C  0.61718057  0.35354921  0.87284913     0.62200
F1403       F  0.75625870  0.41023049  0.96518480    -0.23000
F1404       F  0.70817449  0.39615646  0.01544209    -0.20300
F1405       F  0.71934300  0.48161336  0.99638404    -0.20000
F1406       F  0.65592287  0.33454267  0.84840879    -0.20100
F1407       F  0.58872784  0.38939481  0.85593790    -0.20400
F1408       F  0.59026944  0.30952796  0.88393654    -0.23100
C1409       C  0.64085307  0.39368997  0.60252693    -0.05900
C1410       C  0.66259131  0.44378891  0.60223886     0.00000
C1411       C  0.65594104  0.47924818  0.57328047    -0.08500
C1412       C  0.63146414  0.46075752  0.54501239    -0.05900
C1413       C  0.61192946  0.40885394  0.54393423     0.00000
C1414       C  0.61132190  0.37804518  0.57698689    -0.08400
C1415       C  0.57682104  0.33356442  0.59067739     0.61900
H1416       H  0.64434101  0.36713383  0.62495372     0.12600
H1417       H  0.62760720  0.48725266  0.52266569     0.12600
C1418       C  0.67466028  0.53624147  0.57125185     0.62200
F1419       F  0.56856607  0.33375569  0.62803323    -0.23000
F1420       F  0.59595973  0.28251837  0.57984410    -0.20300
F1421       F  0.53196349  0.34159620  0.58058893    -0.20000
F1422       F  0.72364888  0.53408702  0.57261103    -0.20100
F1423       F  0.65099250  0.56764020  0.59951254    -0.20400
F1424       F  0.66683739  0.56204380  0.53979130    -0.23100
C1425       C  0.58783184  0.23394543  0.00388881    -0.05900
C1426       C  0.53799215  0.22505244  0.50841550     0.00000
C1427       C  0.50571954  0.27045964  0.51346234    -0.08500
C1428       C  0.52431538  0.32253067  0.51358296    -0.05900
C1429       C  0.57448047  0.33182256  0.51025254     0.00000
C1430       C  0.60754788  0.28528555  0.00624049    -0.08400
C1431       C  0.66236142  0.28411289  0.00580471     0.61900
H1432       H  0.61097978  0.19735006  0.00043123     0.12600
H1433       H  0.49861280  0.35630896  0.51890785     0.12600
C1434       C  0.95662202  0.26449517  0.50946482     0.62200
F1435       F  0.68219445  0.23158553  0.00632126    -0.23000
F1436       F  0.67395571  0.30881840  0.53564631    -0.20300
F1437       F  0.68520105  0.30709997  0.97517186    -0.20000
F1438       F  0.94048520  0.22722243  0.53519397    -0.20100
F1439       F  0.94817278  0.24631295  0.47598098    -0.20400
F1440       F  0.93006642  0.31289632  0.51743499    -0.23100
loop_ 
_geom_bond_atom_site_label_1 
_geom_bond_atom_site_label_2 
_geom_bond_distance 
_geom_bond_site_symmetry_2 
_ccdc_geom_bond_type 
C1          C333   1.588       .  S
C1          C349   1.581       .  S
C1          C658   1.626       .  S
C1          C677   1.616   1_554  S
C2          C250   1.591       .  S
C2          C282   1.602       .  S
C2          C301   1.594       .  S
C2          C626   1.605       .  S
Zr3           O4   2.433       .  S
Zr3           O5   2.450       .  S
Zr3           O6   2.435       .  S
Zr3           O9   2.443       .  S
Zr3          O11   2.384       .  S
Zr3          O12   2.375       .  S
Zr3          O13   2.417       .  S
Zr3          O14   2.410       .  S
O4           H60   0.989       .  S
O4           H68   0.989       .  S
O5           C25   1.287       .  A
O6           C27   1.286       .  A
O7          Zr17   2.460       .  S
O7           C26   1.293       .  A
O8          Zr16   2.435       .  S
O8           C27   1.285       .  A
O9           C26   1.284       .  A
O10         Zr18   2.418       .  S
O10          C25   1.281       .  A
O11         Zr16   2.393       .  S
O11         Zr18   2.376       .  S
O12         Zr17   2.378       .  S
O12         Zr18   2.371       .  S
O12          H47   0.966       .  S
O13         Zr16   2.400       .  S
O13         Zr33   2.398       .  S
O13          H50   0.965       .  S
O14         Zr17   2.387       .  S
O14         Zr33   2.407       .  S
Zr15         O40   2.442       .  S
Zr15         O34   2.443       .  S
Zr15         O42   2.450       .  S
Zr15         O30   2.434       .  S
Zr15         O21   2.403       .  S
Zr15         O22   2.407       .  S
Zr15         O23   2.380       .  S
Zr15         O24   2.385       .  S
Zr16         O35   2.437       .  S
Zr16         O28   2.434       .  S
Zr16         O29   2.444       .  S
Zr16         O22   2.391       .  S
Zr16         O23   2.394       .  S
Zr17         O19   2.435       .  S
Zr17         O41   2.437       .  S
Zr17         O43   2.429       .  S
Zr17         O21   2.400       .  S
Zr17         O24   2.404       .  S
Zr18         O44   2.434       .  S
Zr18         O45   2.435       .  S
Zr18         O20   2.438       .  S
Zr18         O21   2.397       .  S
Zr18         O22   2.389       .  S
O19          H56   0.990       .  S
O20          H51   0.990       .  S
O20          H65   0.990       .  S
O22          H48   0.966       .  S
O23         Zr33   2.377       .  S
O24         Zr33   2.380       .  S
O24          H49   0.966       .  S
C25         C269   1.477       .  S
C26         C330   1.519       .  S
C27         C221   1.478       .  S
O28          H64   0.990       .  S
O29          C31   1.287       .  A
O30          C31   1.285       .  A
C31         C253   1.479       .  S
O32         Zr33   2.441       .  S
O32          H61   0.990       .  S
Zr33         O36   2.439       .  S
Zr33         O37   2.439       .  S
Zr33         O38   2.443       .  S
O34          C39   1.285       .  A
O35          H52   0.990       .  S
O35          H67   0.990       .  S
O36          H53   0.991       .  S
O37          H57   0.990       .  S
O37          H66   0.989       .  S
O38          C39   1.285       .  A
C39         C314   1.486       .  S
O40          H59   0.990       .  S
O40          H63   0.990       .  S
O41          H55   0.990       .  S
O41          H62   0.990       .  S
O42          C46   1.287       .  A
O43          C46   1.283       .  A
O44          H54   0.990       .  S
O45          H58   0.990       .  S
C46         C234   1.485       .  S
C69         C170   1.620       .  S
C69         C186   1.588       .  S
C69         C205   1.594       .  S
C69         C237   1.591       .  S
C70         C138   1.619       .  S
C70         C157   1.581       .  S
C70         C173   1.590       .  S
C70         C218   1.600       .  S
Zr71         O72   2.442       .  S
Zr71         O73   2.428   1_455  S
Zr71         O74   2.432       .  S
Zr71         O77   2.412   1_545  S
Zr71         O80   2.376   1_545  S
Zr71         O82   2.404   1_544  S
Zr71        O799   2.379   1_455  S
Zr71        O441   2.400   1_554  S
O72         H128   0.991       .  S
O72         H136   0.990       .  S
O73         C813   1.282       .  A
O74          C95   1.283       .  A
O75         Zr85   2.443       .  S
O75          C94   1.285       .  A
O76         Zr84   2.433   1_455  S
O76         C455   1.282       .  A
O77          C94   1.280       .  A
O78         Zr86   2.414   1_545  S
O78          C93   1.281       .  A
O79         Zr86   2.380   1_545  S
O79        Zr791   2.381       .  S
O79       Zr1164   2.390   1_554  S
O80         Zr85   2.383       .  S
O80        Zr806   2.379   1_455  S
O80         H835   0.962   1_455  S
O81         Zr84   2.400   1_455  S
O81        Zr101   2.387   1_545  S
O81        Zr431   2.399       .  S
O81         H118   0.965       .  S
O82         Zr85   2.391   1_556  S
O82        Zr461   2.391       .  S
Zr83        O108   2.439       .  S
Zr83        O110   2.456       .  S
Zr83         O98   2.448       .  S
Zr83        O822   2.433       .  S
Zr83         O89   2.392       .  S
Zr83         O90   2.410       .  S
Zr83        O811   2.378   1_565  S
Zr83        O812   2.394       .  S
Zr84        O103   2.439   1_655  S
Zr84        O816   2.434       .  S
Zr84        O817   2.409       .  S
Zr84         O91   2.398   1_655  S
Zr84       O1159   2.384       .  S
Zr84        O810   2.399   1_545  S
Zr85         O87   2.435   1_554  S
Zr85        O829   2.438       .  S
Zr85        O471   2.419   1_554  S
Zr85       O1169   2.395   1_454  S
Zr85        O452   2.396   1_554  S
Zr86        O112   2.435       .  S
Zr86        O113   2.437   1_554  S
Zr86         O88   2.438   1_565  S
Zr86        O800   2.377       .  S
Zr86        O449   2.387   1_554  S
Zr86        O450   2.396   1_554  S
O87         H124   0.990   1_556  S
O88         H119   0.990       .  S
O88         H133   0.990       .  S
O89       Zr1165   2.397       .  S
O89        Zr446   2.380       .  S
O90        Zr804   2.401   1_565  S
O90        Zr446   2.394       .  S
O90         H116   0.966       .  S
O91        Zr101   2.374   1_545  S
O91        Zr803   2.382   1_445  S
O92        Zr101   2.384       .  S
O92        Zr803   2.393   1_455  S
O92        Zr445   2.398       .  S
O92         H117   0.966       .  S
C93         O793   1.282       .  A
C93         C202   1.471       .  S
C94         C154   1.471       .  S
C95         O436   1.280   1_554  A
C95         C346   1.469       .  S
O96        Zr804   2.434       .  S
O96         H132   0.990       .  S
O97        Zr804   2.415       .  S
O97          C99   1.280       .  A
O98          C99   1.285   1_565  A
C99         C189   1.477       .  S
O100       Zr101   2.437   1_545  S
O100        H129   0.990       .  S
Zr101       O104   2.436   1_565  S
Zr101       O105   2.441       .  S
Zr101       O106   2.409       .  S
Zr101       O442   2.396       .  S
O102       Zr803   2.425   1_455  S
O102        C107   1.280       .  A
O103        H120   0.991   1_455  S
O103        H135   0.990       .  S
O104        H121   0.990       .  S
O105        H125   0.990       .  S
O105        H134   0.989       .  S
O106        C107   1.279       .  A
C107        C141   1.465       .  S
O108        H127   0.991       .  S
O108        H131   0.990       .  S
O109       Zr805   2.439       .  S
O109        H130   0.990       .  S
O109        H843   0.990       .  S
O110        C114   1.289       .  A
O111       Zr445   2.417       .  S
O111        C834   1.282   1_455  A
O112        H122   0.990       .  S
O113        H486   0.990       .  S
C114        O831   1.283       .  A
C114        C285   1.482       .  S
H115        O800   0.962       .  S
H123        O829   0.990       .  S
H126        O473   0.990       .  S
C137        C138   1.440       .  A
C137        C142   1.401       .  A
C137        H144   1.066       .  S
C138        C139   1.453       .  A
C139        C146   1.520   1_565  S
C139        C140   1.406       .  A
C140        C141   1.389       .  A
C140        H145   1.086   1_565  S
C141        C142   1.395       .  A
C142        C143   1.524       .  S
C143        F147   1.386       .  S
C143        F148   1.382       .  S
C143        F149   1.383       .  S
C146        F150   1.359       .  S
C146        F151   1.382       .  S
C146        F152   1.385       .  S
C153        C154   1.387       .  A
C153        C158   1.412       .  A
C153        H160   1.083       .  S
C154        C155   1.401       .  A
C155        C162   1.510       .  S
C155        C156   1.398       .  A
C156        C157   1.422       .  A
C156        H161   1.075       .  S
C157        C158   1.458       .  A
C158        C159   1.525       .  S
C159        F163   1.385       .  S
C159        F164   1.377       .  S
C159        F165   1.367       .  S
C162        F166   1.383       .  S
C162        F167   1.382       .  S
C162        F168   1.383       .  S
C169        C170   1.417       .  A
C169        C174   1.413       .  A
C169        H176   1.076       .  S
C170        C171   1.450   1_545  A
C171        C178   1.536       .  S
C171        C172   1.414       .  A
C172        C173   1.418       .  A
C172        H177   1.075       .  S
C173        C174   1.452   1_565  A
C174        C175   1.544       .  S
C175        F179   1.386       .  S
C175        F180   1.362       .  S
C175        F181   1.385       .  S
C178        F182   1.378       .  S
C178        F183   1.376       .  S
C178        F184   1.386       .  S
C185        C186   1.428       .  A
C185        C190   1.402       .  A
C185        H192   1.080       .  S
C186        C187   1.464       .  A
C187        C194   1.533       .  S
C187        C188   1.418       .  A
C188        C189   1.391       .  A
C188        H193   1.083       .  S
C189        C190   1.400       .  A
C190        C191   1.521       .  S
C191        F195   1.385       .  S
C191        F196   1.381       .  S
C191        F197   1.384       .  S
C194        F198   1.374       .  S
C194        F199   1.378   1_545  S
C194        F200   1.386       .  S
C201        C202   1.387       .  A
C201        C206   1.410       .  A
C201        H208   1.085       .  S
C202        C203   1.405       .  A
C203        C210   1.521   1_545  S
C203        C204   1.402       .  A
C204        C205   1.424       .  A
C204        H209   1.080   1_545  S
C205        C206   1.463       .  A
C206        C207   1.540       .  S
C207        F211   1.388       .  S
C207        F212   1.380       .  S
C207        F213   1.370       .  S
C210        F214   1.373       .  S
C210        F215   1.377       .  S
C210        F216   1.382       .  S
C217        C218   1.430       .  A
C217        C222   1.397       .  A
C217        H224   1.078       .  S
C218        C219   1.449       .  A
C219        C226   1.518       .  S
C219        C220   1.414       .  A
C220        C221   1.395       .  A
C220        H225   1.086       .  S
C221        C222   1.407       .  A
C222        C223   1.521       .  S
C223        F227   1.385       .  S
C223        F228   1.378       .  S
C223        F229   1.382       .  S
C226        F230   1.383       .  S
C226        F231   1.362       .  S
C226        F232   1.386       .  S
C233        C234   1.394       .  A
C233        C238   1.413       .  A
C233        H240   1.083       .  S
C234        C235   1.409       .  A
C235        C242   1.516       .  S
C235        C236   1.408       .  A
C236        C237   1.425       .  A
C236        H241   1.076       .  S
C237        C238   1.451       .  A
C238        C239   1.531       .  S
C239        F243   1.385       .  S
C239        F244   1.370       .  S
C239        F245   1.378       .  S
C242        F246   1.381       .  S
C242        F247   1.381       .  S
C242        F248   1.384       .  S
C249        C250   1.425       .  A
C249        C254   1.408       .  A
C249        H256   1.076       .  S
C250        C251   1.459       .  A
C251        C258   1.538       .  S
C251        C252   1.412       .  A
C252        C253   1.391       .  A
C252        H257   1.085       .  S
C253        C254   1.405       .  A
C254        C255   1.519       .  S
C255        F259   1.385       .  S
C255        F260   1.382       .  S
C255        F261   1.383       .  S
C258        F262   1.387       .  S
C258        F263   1.374       .  S
C258        F264   1.376       .  S
C265        C266   1.433       .  A
C265        C270   1.411       .  A
C265        H272   1.073       .  S
C266        C362   1.602   1_554  S
C266        C267   1.454       .  A
C267        C274   1.526       .  S
C267        C268   1.409       .  A
C268        C269   1.388       .  A
C268        H273   1.084       .  S
C269        C270   1.402       .  A
C270        C271   1.517       .  S
C271        F275   1.385       .  S
C271        F276   1.383       .  S
C271        F277   1.383       .  S
C274        F280   1.386       .  S
C274        F638   1.375       .  S
C274        F639   1.364   1_554  S
F278        C634   1.377       .  S
F279        C634   1.361       .  S
C281        C282   1.424       .  A
C281        C286   1.402       .  A
C281        H288   1.071       .  S
C282        C283   1.454       .  A
C283       C1010   1.532       .  S
C283       C1004   1.414       .  A
C284       C1003   1.415       .  A
C284       C1005   1.396   1_455  A
C284        H289   1.084       .  S
C285        C286   1.406       .  A
C285       C1004   1.395       .  A
C286        C287   1.520       .  S
C287        F291   1.385       .  S
C287        F292   1.379       .  S
C287        F293   1.383       .  S
C290       C1003   1.531       .  S
C290        F294   1.370       .  S
C290        F295   1.380       .  S
C290        F296   1.387       .  S
C297        C298   1.422       .  A
C297       C1022   1.425   1_455  A
C297       H1024   1.064       .  S
C298        C361   1.623       .  S
C298        C299   1.437       .  A
C299        C666   1.528       .  S
C299        C300   1.407       .  A
C300       C1021   1.419   1_455  A
C300        H305   1.084   1_455  S
C301        C302   1.451       .  A
C301       C1020   1.417       .  A
C302        C303   1.548       .  S
C302       C1017   1.426       .  A
C303        F307   1.378       .  S
C303        F308   1.373       .  S
C303        F309   1.385       .  S
H304       C1017   1.065       .  S
C306        C659   1.528       .  S
C306        F311   1.365       .  S
C306        F312   1.387   1_455  S
C306        F670   1.382       .  S
F310        C666   1.382       .  S
C313        C314   1.398       .  A
C313        C318   1.417       .  A
C313        H320   1.086       .  S
C314        C315   1.405       .  A
C315        C322   1.517       .  S
C315        C316   1.406       .  A
C316        C317   1.431       .  A
C316        H321   1.077       .  S
C317        C361   1.617       .  S
C317        C318   1.444       .  A
C318        C319   1.522       .  S
C319        F323   1.386       .  S
C319        F324   1.373       .  S
C319        F325   1.378       .  S
C322        F326   1.382       .  S
C322        F327   1.381       .  S
C322        F328   1.385       .  S
C329        C330   1.401       .  A
C329        C334   1.411       .  A
C329        H336   1.082       .  S
C330        C331   1.426       .  A
C331        C338   1.520       .  S
C331        C332   1.419       .  A
C332        C333   1.414       .  A
C332        H337   1.081       .  S
C333        C334   1.458       .  A
C334        C335   1.543       .  S
C335        F339   1.387       .  S
C335        F340   1.376       .  S
C335        F341   1.375       .  S
C338        F342   1.384       .  S
C338        F343   1.379       .  S
C338        F344   1.385       .  S
C345        C350   1.411       .  A
C345        C706   1.394       .  A
C345        H352   1.083       .  S
C346        C347   1.400       .  A
C346        C705   1.391       .  A
C347       C1074   1.517   1_455  S
C347        C348   1.405       .  A
C348        C349   1.426       .  A
C348        H353   1.077   1_455  S
C349        C710   1.455       .  A
C350        C351   1.541       .  S
C350        C709   1.454       .  A
C351        F355   1.386       .  S
C351        F357   1.377       .  S
C351        F716   1.372       .  S
C354       C1067   1.519       .  S
C354        F358   1.384       .  S
C354        F359   1.383   1_554  S
C354        F360   1.383       .  S
F356        C711   1.374       .  S
C361        C693   1.589       .  S
C361        C709   1.582       .  S
C362        C610   1.587       .  S
C362        C642   1.604       .  S
C362        C661   1.595       .  S
Zr363       O364   2.435       .  S
Zr363       O365   2.449       .  S
Zr363       O366   2.439       .  S
Zr363       O369   2.443       .  S
Zr363       O371   2.384       .  S
Zr363       O372   2.381       .  S
Zr363       O373   2.412       .  S
Zr363       O374   2.411       .  S
O364        H420   0.989       .  S
O364        H428   0.989       .  S
O365        C385   1.286       .  A
O366        C387   1.285       .  A
O367       Zr377   2.451       .  S
O367        C386   1.291       .  A
O368       Zr376   2.437       .  S
O368        C387   1.285       .  A
O369        C386   1.284       .  A
O370       Zr378   2.424       .  S
O370        C385   1.282       .  A
O371       Zr376   2.393       .  S
O371       Zr378   2.379       .  S
O372       Zr377   2.384       .  S
O372       Zr378   2.373       .  S
O372        H407   0.966       .  S
O373       Zr376   2.395       .  S
O373       Zr393   2.397       .  S
O373        H410   0.963       .  S
O374       Zr377   2.385       .  S
O374       Zr393   2.404       .  S
Zr375       O400   2.441       .  S
Zr375       O394   2.447       .  S
Zr375       O402   2.441       .  S
Zr375       O390   2.434       .  S
Zr375       O381   2.409       .  S
Zr375       O382   2.407       .  S
Zr375       O383   2.375       .  S
Zr375       O384   2.385       .  S
Zr376       O395   2.436       .  S
Zr376       O388   2.434       .  S
Zr376       O389   2.438       .  S
Zr376       O382   2.393       .  S
Zr376       O383   2.393       .  S
Zr377       O379   2.435       .  S
Zr377       O401   2.438       .  S
Zr377       O403   2.429       .  S
Zr377       O381   2.400       .  S
Zr377       O384   2.400       .  S
Zr378       O404   2.438       .  S
Zr378       O405   2.435       .  S
Zr378       O380   2.437       .  S
Zr378       O381   2.398       .  S
Zr378       O382   2.392       .  S
O379        H416   0.990       .  S
O380        H411   0.990       .  S
O380        H425   0.990       .  S
O382        H408   0.966       .  S
O383       Zr393   2.378       .  S
O384       Zr393   2.376       .  S
O384        H409   0.966       .  S
C385        C629   1.479       .  S
C386        C690   1.517       .  S
C387        C581   1.480       .  S
O388        H424   0.990       .  S
O389        C391   1.285       .  A
O390        C391   1.284       .  A
C391        C613   1.477       .  S
O392       Zr393   2.440       .  S
O392        H421   0.990       .  S
Zr393       O396   2.437       .  S
Zr393       O397   2.440       .  S
Zr393       O398   2.439       .  S
O394        C399   1.286       .  A
O395        H412   0.990       .  S
O395        H427   0.990       .  S
O396        H413   0.990       .  S
O397        H417   0.990       .  S
O397        H426   0.989       .  S
O398        C399   1.284       .  A
C399        C674   1.488       .  S
O400        H419   0.990       .  S
O400        H423   0.990       .  S
O401        H415   0.990       .  S
O401        H422   0.990       .  S
O402        C406   1.285       .  A
O403        C406   1.282       .  A
O404        H414   0.990       .  S
O405        H418   0.990       .  S
C406        C594   1.480       .  S
C429        C530   1.619       .  S
C429        C546   1.583       .  S
C429        C565   1.588       .  S
C429        C597   1.593       .  S
C430        C498   1.621       .  S
C430        C517   1.583       .  S
C430        C533   1.589       .  S
C430        C578   1.603       .  S
Zr431       O432   2.442       .  S
Zr431       O433   2.430   1_455  S
Zr431       O434   2.434       .  S
Zr431       O437   2.414   1_545  S
Zr431      O1159   2.382   1_455  S
Zr431       O440   2.376   1_545  S
Zr431       O442   2.406   1_545  S
O432        H488   0.991       .  S
O432        H496   0.990       .  S
O433       C1173   1.283       .  A
O434        C455   1.284       .  A
O435       Zr445   2.451       .  S
O435        C454   1.286       .  A
O436       Zr444   2.422   1_455  S
O437        C454   1.280       .  A
O438       Zr446   2.409   1_545  S
O438        C453   1.280       .  A
O439      Zr1151   2.384       .  S
O439       Zr804   2.388       .  S
O439       Zr446   2.382   1_545  S
O440       Zr445   2.379       .  S
O440      Zr1166   2.377   1_455  S
O440       H1195   0.964       .  S
O441       Zr444   2.397   1_455  S
O441       Zr461   2.392   1_545  S
O441        H478   0.965       .  S
O442       Zr445   2.387       .  S
Zr443       O468   2.440       .  S
Zr443      O1182   2.436       .  S
Zr443       O470   2.458       .  S
Zr443       O458   2.449       .  S
Zr443       O449   2.396       .  S
Zr443       O450   2.413       .  S
Zr443      O1171   2.376   1_565  S
Zr443      O1172   2.392       .  S
Zr444       O463   2.439   1_655  S
Zr444      O1176   2.433       .  S
Zr444      O1177   2.400       .  S
Zr444       O799   2.386   1_556  S
Zr444      O1170   2.399   1_545  S
Zr444       O451   2.390   1_655  S
Zr445       O447   2.435       .  S
Zr445      O1189   2.439       .  S
Zr445       O809   2.395   1_455  S
Zr446       O472   2.437       .  S
Zr446       O473   2.437       .  S
Zr446       O448   2.437   1_565  S
Zr446      O1160   2.375       .  S
O447        H484   0.990       .  S
O448        H479   0.991       .  S
O448        H493   0.990       .  S
O449       Zr805   2.399   1_556  S
O450      Zr1164   2.404   1_565  S
O450        H476   0.966       .  S
O451      Zr1163   2.381   1_445  S
O451       Zr461   2.371   1_545  S
O452      Zr1163   2.391   1_455  S
O452       Zr461   2.380       .  S
O452        H477   0.966       .  S
C453       O1153   1.283       .  A
C453        C562   1.468       .  S
C454        C514   1.475       .  S
C455        C706   1.476       .  S
O456      Zr1164   2.433       .  S
O456        H492   0.990       .  S
O457      Zr1164   2.411       .  S
O457        C459   1.279       .  A
O458        C459   1.286   1_565  A
C459        C549   1.473       .  S
O460       Zr461   2.436   1_545  S
O460        H489   0.990       .  S
Zr461       O464   2.436   1_565  S
Zr461       O465   2.436       .  S
Zr461       O466   2.411       .  S
O462      Zr1163   2.423   1_455  S
O462        C467   1.280       .  A
O463        H480   0.990   1_455  S
O463        H495   0.990       .  S
O464        H481   0.990       .  S
O465        H485   0.990       .  S
O465        H494   0.990       .  S
O466        C467   1.279       .  A
C467        C501   1.466       .  S
O468        H487   0.990       .  S
O468        H491   0.990       .  S
O469      Zr1165   2.439       .  S
O469       H1203   0.990       .  S
O469        H490   0.990       .  S
O470        C474   1.289       .  A
O471       C1194   1.282   1_455  A
O472        H482   0.990       .  S
C474       O1191   1.282       .  A
C474        C645   1.484       .  S
H475       O1160   0.964       .  S
H483       O1189   0.990       .  S
C497        C498   1.441       .  A
C497        C502   1.401       .  A
C497        H504   1.070       .  S
C498        C499   1.456       .  A
C499        C506   1.525   1_565  S
C499        C500   1.410       .  A
C500        C501   1.388       .  A
C500        H505   1.085   1_565  S
C501        C502   1.394       .  A
C502        C503   1.525       .  S
C503        F507   1.385       .  S
C503        F508   1.383       .  S
C503        F509   1.384       .  S
C506        F510   1.361       .  S
C506        F511   1.380       .  S
C506        F512   1.386       .  S
C513        C514   1.388       .  A
C513        C518   1.413       .  A
C513        H520   1.083       .  S
C514        C515   1.402       .  A
C515        C522   1.510       .  S
C515        C516   1.399       .  A
C516        C517   1.421       .  A
C516        H521   1.075       .  S
C517        C518   1.457       .  A
C518        C519   1.524       .  S
C519        F523   1.385       .  S
C519        F524   1.377       .  S
C519        F525   1.367       .  S
C522        F526   1.382       .  S
C522        F527   1.381       .  S
C522        F528   1.382       .  S
C529        C530   1.417       .  A
C529        C534   1.412       .  A
C529        H536   1.078       .  S
C530        C531   1.451   1_545  A
C531        C538   1.537       .  S
C531        C532   1.414       .  A
C532        C533   1.418       .  A
C532        H537   1.074       .  S
C533        C534   1.452   1_565  A
C534        C535   1.541       .  S
C535        F539   1.386       .  S
C535        F540   1.361       .  S
C535        F541   1.386       .  S
C538        F542   1.378       .  S
C538        F543   1.376       .  S
C538        F544   1.386       .  S
C545        C546   1.425       .  A
C545        C550   1.399       .  A
C545        H552   1.080       .  S
C546        C547   1.467       .  A
C547        C554   1.537       .  S
C547        C548   1.418       .  A
C548        C549   1.390       .  A
C548        H553   1.083       .  S
C549        C550   1.399       .  A
C550        C551   1.518       .  S
C551        F555   1.385       .  S
C551        F556   1.380       .  S
C551        F557   1.384       .  S
C554        F558   1.373       .  S
C554        F559   1.377   1_545  S
C554        F560   1.385       .  S
C561        C562   1.388       .  A
C561        C566   1.411       .  A
C561        H568   1.085       .  S
C562        C563   1.404       .  A
C563        C570   1.520   1_545  S
C563        C564   1.399       .  A
C564        C565   1.423       .  A
C564        H569   1.080   1_545  S
C565        C566   1.461       .  A
C566        C567   1.537       .  S
C567        F571   1.388       .  S
C567        F572   1.380       .  S
C567        F573   1.371       .  S
C570        F574   1.372       .  S
C570        F575   1.378       .  S
C570        F576   1.382       .  S
C577        C578   1.429       .  A
C577        C582   1.397       .  A
C577        H584   1.078       .  S
C578        C579   1.451       .  A
C579        C586   1.517       .  S
C579        C580   1.416       .  A
C580        C581   1.394       .  A
C580        H585   1.086       .  S
C581        C582   1.408       .  A
C582        C583   1.521       .  S
C583        F587   1.385       .  S
C583        F588   1.376       .  S
C583        F589   1.382       .  S
C586        F590   1.383       .  S
C586        F591   1.361       .  S
C586        F592   1.386       .  S
C593        C594   1.393       .  A
C593        C598   1.411       .  A
C593        H600   1.083       .  S
C594        C595   1.408       .  A
C595        C602   1.519       .  S
C595        C596   1.408       .  A
C596        C597   1.427       .  A
C596        H601   1.075       .  S
C597        C598   1.450       .  A
C598        C599   1.530       .  S
C599        F603   1.386       .  S
C599        F604   1.368       .  S
C599        F605   1.378       .  S
C602        F606   1.382       .  S
C602        F607   1.382       .  S
C602        F608   1.385       .  S
C609        C610   1.422       .  A
C609        C614   1.407       .  A
C609        H616   1.076       .  S
C610        C611   1.459       .  A
C611        C618   1.539       .  S
C611        C612   1.411       .  A
C612        C613   1.391       .  A
C612        H617   1.085       .  S
C613        C614   1.405       .  A
C614        C615   1.518       .  S
C615        F619   1.385       .  S
C615        F620   1.381       .  S
C615        F621   1.383       .  S
C618        F622   1.387       .  S
C618        F623   1.373       .  S
C618        F624   1.377       .  S
C625        C626   1.435       .  A
C625        C630   1.414       .  A
C625        H632   1.073       .  S
C626        C627   1.452       .  A
C627        C634   1.521       .  S
C627        C628   1.407       .  A
C628        C629   1.387       .  A
C628        H633   1.085       .  S
C629        C630   1.403       .  A
C630        C631   1.518       .  S
C631        F635   1.385       .  S
C631        F636   1.383       .  S
C631        F637   1.383       .  S
C634        F640   1.387       .  S
C641        C642   1.424       .  A
C641        C646   1.403       .  A
C641        H648   1.069       .  S
C642        C643   1.453       .  A
C643       C1370   1.531       .  S
C643       C1364   1.413       .  A
C644       C1363   1.416       .  A
C644       C1365   1.396   1_455  A
C644        H649   1.085       .  S
C645       C1364   1.396       .  A
C645        C646   1.407       .  A
C646        C647   1.520       .  S
C647        F651   1.385       .  S
C647        F652   1.380       .  S
C647        F653   1.383       .  S
C650       C1363   1.532       .  S
C650        F654   1.371       .  S
C650        F655   1.380       .  S
C650        F656   1.387       .  S
C657        C658   1.422   1_556  A
C657       C1382   1.424   1_455  A
C657       H1384   1.065       .  S
C658        C659   1.439       .  A
C659        C660   1.409       .  A
C660       C1381   1.417   1_454  A
C660        H665   1.085   1_455  S
C661       C1380   1.416   1_556  A
C661        C662   1.450       .  A
C662        C663   1.544       .  S
C662       C1377   1.424       .  A
C663        F667   1.378       .  S
C663        F668   1.371       .  S
C663        F669   1.385       .  S
H664       C1377   1.063       .  S
C666        F671   1.365       .  S
C666        F672   1.387   1_455  S
C673        C674   1.398       .  A
C673        C678   1.417       .  A
C673        H680   1.086       .  S
C674        C675   1.405       .  A
C675        C682   1.518       .  S
C675        C676   1.407       .  A
C676        C677   1.430       .  A
C676        H681   1.077       .  S
C677        C678   1.447       .  A
C678        C679   1.524       .  S
C679        F683   1.386       .  S
C679        F684   1.372   1_556  S
C679        F685   1.378       .  S
C682        F686   1.383       .  S
C682        F687   1.381       .  S
C682        F688   1.385       .  S
C689        C690   1.400       .  A
C689        C694   1.408       .  A
C689        H696   1.083       .  S
C690        C691   1.426       .  A
C691        C698   1.520       .  S
C691        C692   1.420       .  A
C692        C693   1.415       .  A
C692        H697   1.081       .  S
C693        C694   1.457       .  A
C694        C695   1.542       .  S
C695        F699   1.387       .  S
C695        F700   1.379       .  S
C695        F701   1.372       .  S
C698        F702   1.384       .  S
C698        F703   1.378       .  S
C698        F704   1.384       .  S
C705        C710   1.408       .  A
C705        H712   1.083   1_554  S
C706        C707   1.402       .  A
C707       C1434   1.519   1_455  S
C707        C708   1.404       .  A
C708        C709   1.426       .  A
C708        H713   1.074       .  S
C710        C711   1.537       .  S
C711        F715   1.386       .  S
C711        F717   1.376   1_554  S
C714       C1427   1.519       .  S
C714        F718   1.384       .  S
C714        F719   1.382       .  S
C714        F720   1.384       .  S
C721       C1378   1.628       .  S
C721       C1397   1.620   1_554  S
C721       C1053   1.589       .  S
C721       C1069   1.589       .  S
C722        C970   1.589       .  S
C722       C1346   1.603       .  S
C722       C1002   1.608       .  S
C722       C1021   1.597       .  S
Zr723       O724   2.434       .  S
Zr723       O725   2.451       .  S
Zr723       O726   2.446       .  S
Zr723       O729   2.453       .  S
Zr723       O731   2.388       .  S
Zr723       O732   2.381       .  S
Zr723       O733   2.418       .  S
Zr723       O734   2.411       .  S
O724        H780   0.989       .  S
O724        H788   0.989       .  S
O725        C745   1.287       .  A
O726        C747   1.287       .  A
O727       Zr737   2.459       .  S
O727        C746   1.292       .  A
O728       Zr736   2.442       .  S
O728        C747   1.286       .  A
O729        C746   1.286       .  A
O730       Zr738   2.416       .  S
O730        C745   1.281       .  A
O731       Zr736   2.396       .  S
O731       Zr738   2.380       .  S
O732       Zr737   2.381       .  S
O732       Zr738   2.372       .  S
O732        H767   0.966       .  S
O733       Zr736   2.402       .  S
O733       Zr753   2.398       .  S
O733        H770   0.964       .  S
O734       Zr737   2.383       .  S
O734       Zr753   2.407       .  S
Zr735       O760   2.441       .  S
Zr735       O754   2.446       .  S
Zr735       O762   2.435       .  S
Zr735       O750   2.430       .  S
Zr735       O741   2.409       .  S
Zr735       O742   2.405       .  S
Zr735       O743   2.376       .  S
Zr735       O744   2.389       .  S
Zr736       O755   2.437       .  S
Zr736       O748   2.434       .  S
Zr736       O749   2.449       .  S
Zr736       O742   2.390       .  S
Zr736       O743   2.395       .  S
Zr737       O739   2.435       .  S
Zr737       O761   2.440       .  S
Zr737       O763   2.429       .  S
Zr737       O741   2.400       .  S
Zr737       O744   2.403       .  S
Zr738       O764   2.435       .  S
Zr738       O765   2.435       .  S
Zr738       O740   2.437       .  S
Zr738       O741   2.393       .  S
Zr738       O742   2.388       .  S
O739        H776   0.990       .  S
O740        H771   0.990       .  S
O740        H785   0.990       .  S
O742        H768   0.966       .  S
O743       Zr753   2.377       .  S
O744       Zr753   2.377       .  S
O744        H769   0.966       .  S
C745        C989   1.478       .  S
C746       C1050   1.522       .  S
C747        C941   1.485       .  S
O748        H784   0.990       .  S
O749        C751   1.287       .  A
O750        C751   1.283       .  A
C751        C973   1.481       .  S
O752       Zr753   2.440       .  S
O752        H781   0.990       .  S
Zr753       O756   2.437       .  S
Zr753       O757   2.439       .  S
Zr753       O758   2.448       .  S
O754        C759   1.286       .  A
O755        H772   0.990       .  S
O755        H787   0.990       .  S
O756        H773   0.990       .  S
O757        H777   0.990       .  S
O757        H786   0.989       .  S
O758        C759   1.286       .  A
C759       C1034   1.491       .  S
O760        H779   0.990       .  S
O760        H783   0.990       .  S
O761        H775   0.990       .  S
O761        H782   0.990       .  S
O762        C766   1.284       .  A
O763        C766   1.283       .  A
O764        H774   0.990       .  S
O765        H778   0.990       .  S
C766        C954   1.479       .  S
C789        C890   1.617       .  S
C789        C906   1.587       .  S
C789        C925   1.600       .  S
C789        C957   1.591       .  S
C790        C858   1.626       .  S
C790        C877   1.578       .  S
C790        C893   1.584       .  S
C790        C938   1.606       .  S
Zr791       O792   2.442       .  S
Zr791       O793   2.428       .  S
Zr791       O794   2.435       .  S
Zr791       O797   2.417   1_545  S
Zr791       O800   2.377   1_545  S
Zr791      O1161   2.399   1_554  S
Zr791       O802   2.405   1_545  S
O792        H848   0.991       .  S
O792        H856   0.990       .  S
O794        C815   1.284       .  A
O795       Zr805   2.448       .  S
O795        C814   1.286       .  A
O796       Zr804   2.432       .  S
O796       C1175   1.283       .  A
O797        C814   1.281       .  A
O798       Zr806   2.411   1_545  S
O798        C813   1.280       .  A
O799       Zr806   2.384   1_545  S
O800       Zr805   2.381       .  S
O801      Zr1151   2.398       .  S
O801       Zr804   2.395       .  S
O801       Zr821   2.386   1_545  S
O801        H838   0.965       .  S
O802       Zr805   2.385       .  S
O802      Zr1181   2.393   1_554  S
Zr803       O828   2.439       .  S
Zr803       O830   2.469       .  S
Zr803       O818   2.458       .  S
Zr803       O809   2.389       .  S
Zr803       O810   2.408       .  S
Zr804       O823   2.437       .  S
Zr804       O811   2.391       .  S
Zr805       O807   2.436   1_554  S
Zr805      O1191   2.419   1_554  S
Zr805      O1172   2.397   1_554  S
Zr806       O832   2.435       .  S
Zr806       O833   2.438   1_554  S
Zr806       O808   2.436   1_565  S
Zr806      O1169   2.384   1_554  S
Zr806      O1170   2.392   1_554  S
O807        H844   0.990       .  S
O808        H839   0.991       .  S
O808        H853   0.990       .  S
O809      Zr1166   2.377       .  S
O810      Zr1166   2.390       .  S
O810        H836   0.966       .  S
O811       Zr821   2.374   1_545  S
O812      Zr1165   2.399       .  S
O812       Zr821   2.380       .  S
O812        H837   0.966       .  S
C813        C922   1.470       .  S
C814        C874   1.474       .  S
C815       O1156   1.282   1_554  A
C815       C1066   1.474       .  S
O816        H852   0.990       .  S
O817        C819   1.279       .  A
O818        C819   1.288   1_565  A
C819        C909   1.477       .  S
O820       Zr821   2.438   1_545  S
O820        H849   0.990       .  S
Zr821       O824   2.437   1_565  S
Zr821       O825   2.439       .  S
Zr821       O826   2.410       .  S
Zr821      O1162   2.394       .  S
O822        C827   1.282       .  A
O823        H840   0.990       .  S
O823        H855   0.990       .  S
O824        H841   0.991       .  S
O825        H845   0.990       .  S
O825        H854   0.990       .  S
O826        C827   1.279       .  A
C827        C861   1.469       .  S
O828        H847   0.990       .  S
O828        H851   0.990       .  S
O829        H850   0.990       .  S
O830        C834   1.291       .  A
O831      Zr1165   2.419       .  S
O832        H842   0.990       .  S
O833       H1206   0.990       .  S
C834       C1005   1.489       .  S
H846       O1193   0.990       .  S
C857        C858   1.439       .  A
C857        C862   1.401       .  A
C857        H864   1.070       .  S
C858        C859   1.459       .  A
C859        C866   1.528   1_565  S
C859        C860   1.413       .  A
C860        C861   1.389       .  A
C860        H865   1.083   1_565  S
C861        C862   1.394       .  A
C862        C863   1.523       .  S
C863        F867   1.385       .  S
C863        F868   1.383       .  S
C863        F869   1.383       .  S
C866        F870   1.366       .  S
C866        F871   1.377       .  S
C866        F872   1.386       .  S
C873        C874   1.387       .  A
C873        C878   1.413       .  A
C873        H880   1.083       .  S
C874        C875   1.402       .  A
C875        C882   1.508       .  S
C875        C876   1.399       .  A
C876        C877   1.419       .  A
C876        H881   1.075       .  S
C877        C878   1.458       .  A
C878        C879   1.527       .  S
C879        F883   1.385       .  S
C879        F884   1.375       .  S
C879        F885   1.368       .  S
C882        F886   1.382       .  S
C882        F887   1.381       .  S
C882        F888   1.382       .  S
C889        C890   1.419       .  A
C889        C894   1.412       .  A
C889        H896   1.081       .  S
C890        C891   1.453   1_545  A
C891        C898   1.539       .  S
C891        C892   1.412       .  A
C892        C893   1.414       .  A
C892        H897   1.075       .  S
C893        C894   1.452   1_565  A
C894        C895   1.543       .  S
C895        F899   1.386       .  S
C895        F900   1.361       .  S
C895        F901   1.385       .  S
C898        F902   1.378       .  S
C898        F903   1.375       .  S
C898        F904   1.386       .  S
C905        C906   1.427       .  A
C905        C910   1.400       .  A
C905        H912   1.080       .  S
C906        C907   1.464       .  A
C907        C914   1.534       .  S
C907        C908   1.418       .  A
C908        C909   1.391       .  A
C908        H913   1.083       .  S
C909        C910   1.401       .  A
C910        C911   1.521       .  S
C911        F915   1.386       .  S
C911        F916   1.382       .  S
C911        F917   1.383       .  S
C914        F918   1.376       .  S
C914        F919   1.377   1_545  S
C914        F920   1.384   1_645  S
C921        C922   1.387       .  A
C921        C926   1.413       .  A
C921        H928   1.084       .  S
C922        C923   1.402       .  A
C923        C930   1.520   1_545  S
C923        C924   1.399       .  A
C924        C925   1.424       .  A
C924        H929   1.079   1_545  S
C925        C926   1.467       .  A
C926        C927   1.539       .  S
C927        F931   1.387       .  S
C927        F932   1.377       .  S
C927        F933   1.374       .  S
C930        F934   1.372       .  S
C930        F935   1.378       .  S
C930        F936   1.382       .  S
C937        C938   1.429       .  A
C937        C942   1.400       .  A
C937        H944   1.077       .  S
C938        C939   1.451       .  A
C939        C946   1.519       .  S
C939        C940   1.416       .  A
C940        C941   1.396       .  A
C940        H945   1.086       .  S
C941        C942   1.410       .  A
C942        C943   1.522       .  S
C943        F947   1.385       .  S
C943        F948   1.378       .  S
C943        F949   1.382       .  S
C946        F950   1.383       .  S
C946        F951   1.363       .  S
C946        F952   1.386       .  S
C953        C954   1.394       .  A
C953        C958   1.412       .  A
C953        H960   1.083       .  S
C954        C955   1.406       .  A
C955        C962   1.519       .  S
C955        C956   1.406       .  A
C956        C957   1.427       .  A
C956        H961   1.074       .  S
C957        C958   1.450       .  A
C958        C959   1.533       .  S
C959        F963   1.386       .  S
C959        F964   1.372       .  S
C959        F965   1.379       .  S
C962        F966   1.382       .  S
C962        F967   1.382       .  S
C962        F968   1.384       .  S
C969        C970   1.422       .  A
C969        C974   1.409       .  A
C969        H976   1.077       .  S
C970        C971   1.459       .  A
C971        C978   1.539       .  S
C971        C972   1.411       .  A
C972        C973   1.391       .  A
C972        H977   1.085       .  S
C973        C974   1.406       .  A
C974        C975   1.517       .  S
C975        F979   1.385       .  S
C975        F980   1.382       .  S
C975        F981   1.383       .  S
C978        F982   1.387       .  S
C978        F983   1.372       .  S
C978        F984   1.378       .  S
C985        C986   1.435       .  A
C985        C990   1.415       .  A
C985        H992   1.073       .  S
C986       C1082   1.605   1_554  S
C986        C987   1.455       .  A
C987        C994   1.523       .  S
C987        C988   1.404       .  A
C988        C989   1.385       .  A
C988        H993   1.085       .  S
C989        C990   1.402       .  A
C990        C991   1.517       .  S
C991        F995   1.384       .  S
C991        F996   1.383       .  S
C991        F997   1.383       .  S
C994       F1358   1.379       .  S
C994       F1359   1.359   1_554  S
C994       F1000   1.388       .  S
F998       C1354   1.376       .  S
F999       C1354   1.363       .  S
C1001      C1002   1.426       .  A
C1001      C1006   1.406       .  A
C1001      H1008   1.069       .  S
C1002      C1003   1.455   1_655  A
C1004      H1009   1.085       .  S
C1005      C1006   1.406       .  A
C1006      C1007   1.520       .  S
C1007      F1011   1.385       .  S
C1007      F1012   1.381       .  S
C1007      F1013   1.383       .  S
C1010      F1014   1.369       .  S
C1010      F1015   1.381       .  S
C1010      F1016   1.387       .  S
C1017      C1018   1.425       .  A
C1018      C1081   1.626       .  S
C1018      C1019   1.438       .  A
C1019      C1386   1.528       .  S
C1019      C1020   1.406       .  A
C1020      H1025   1.084       .  S
C1021      C1022   1.454       .  A
C1022      C1023   1.546       .  S
C1023      F1027   1.378   1_655  S
C1023      F1028   1.372       .  S
C1023      F1029   1.385   1_655  S
C1026      C1379   1.531       .  S
C1026      F1390   1.382       .  S
C1026      F1031   1.364       .  S
C1026      F1032   1.387       .  S
F1030      C1386   1.382       .  S
C1033      C1034   1.399       .  A
C1033      C1038   1.419       .  A
C1033      H1040   1.086       .  S
C1034      C1035   1.406       .  A
C1035      C1042   1.518       .  S
C1035      C1036   1.408       .  A
C1036      C1037   1.429       .  A
C1036      H1041   1.077       .  S
C1037      C1081   1.618       .  S
C1037      C1038   1.448       .  A
C1038      C1039   1.525       .  S
C1039      F1043   1.386       .  S
C1039      F1044   1.372       .  S
C1039      F1045   1.379       .  S
C1042      F1046   1.382       .  S
C1042      F1047   1.381       .  S
C1042      F1048   1.385       .  S
C1049      C1050   1.402       .  A
C1049      C1054   1.412       .  A
C1049      H1056   1.083       .  S
C1050      C1051   1.426       .  A
C1051      C1058   1.519       .  S
C1051      C1052   1.421       .  A
C1052      C1053   1.415       .  A
C1052      H1057   1.081       .  S
C1053      C1054   1.456       .  A
C1054      C1055   1.539       .  S
C1055      F1059   1.387       .  S
C1055      F1060   1.379       .  S
C1055      F1061   1.373       .  S
C1058      F1062   1.383       .  S
C1058      F1063   1.379       .  S
C1058      F1064   1.385       .  S
C1065      C1426   1.393       .  A
C1065      C1070   1.411       .  A
C1065      H1072   1.083       .  S
C1066      C1425   1.391       .  A
C1066      C1067   1.400       .  A
C1067      C1068   1.407       .  A
C1068      C1069   1.429       .  A
C1068      H1073   1.075       .  S
C1069      C1430   1.455       .  A
C1070      C1071   1.539       .  S
C1070      C1429   1.454       .  A
C1071      F1075   1.386       .  S
C1071      F1436   1.373       .  S
C1071      F1077   1.376       .  S
C1074      F1078   1.384       .  S
C1074      F1079   1.382   1_554  S
C1074      F1080   1.384       .  S
F1076      C1431   1.372       .  S
C1081      C1413   1.593       .  S
C1081      C1429   1.586       .  S
C1082      C1330   1.585       .  S
C1082      C1362   1.609       .  S
C1082      C1381   1.596       .  S
Zr1083     O1084   2.431       .  S
Zr1083     O1085   2.447       .  S
Zr1083     O1086   2.441       .  S
Zr1083     O1089   2.444       .  S
Zr1083     O1091   2.388       .  S
Zr1083     O1092   2.379       .  S
Zr1083     O1093   2.413       .  S
Zr1083     O1094   2.404       .  S
O1084      H1140   0.988       .  S
O1084      H1148   0.989       .  S
O1085      C1105   1.286       .  A
O1086      C1107   1.286       .  A
O1087     Zr1097   2.465       .  S
O1087      C1106   1.294       .  A
O1088     Zr1096   2.428       .  S
O1088      C1107   1.284       .  A
O1089      C1106   1.285       .  A
O1090     Zr1098   2.424       .  S
O1090      C1105   1.282       .  A
O1091     Zr1096   2.400       .  S
O1091     Zr1098   2.378       .  S
O1092     Zr1097   2.381       .  S
O1092     Zr1098   2.374       .  S
O1092      H1127   0.966       .  S
O1093     Zr1096   2.398       .  S
O1093     Zr1113   2.395       .  S
O1093      H1130   0.964       .  S
O1094     Zr1097   2.380       .  S
O1094     Zr1113   2.401       .  S
Zr1095     O1120   2.442       .  S
Zr1095     O1114   2.450       .  S
Zr1095     O1122   2.443       .  S
Zr1095     O1110   2.431       .  S
Zr1095     O1101   2.409       .  S
Zr1095     O1102   2.406       .  S
Zr1095     O1103   2.376       .  S
Zr1095     O1104   2.385       .  S
Zr1096     O1115   2.437       .  S
Zr1096     O1108   2.435       .  S
Zr1096     O1109   2.442       .  S
Zr1096     O1102   2.394       .  S
Zr1096     O1103   2.389       .  S
Zr1097     O1099   2.436       .  S
Zr1097     O1121   2.438       .  S
Zr1097     O1123   2.427       .  S
Zr1097     O1101   2.405       .  S
Zr1097     O1104   2.404       .  S
Zr1098     O1124   2.437       .  S
Zr1098     O1125   2.436       .  S
Zr1098     O1100   2.439       .  S
Zr1098     O1101   2.400       .  S
Zr1098     O1102   2.392       .  S
O1099      H1136   0.990       .  S
O1100      H1131   0.990       .  S
O1100      H1145   0.990       .  S
O1102      H1128   0.965       .  S
O1103     Zr1113   2.378       .  S
O1104     Zr1113   2.379       .  S
O1104      H1129   0.966       .  S
C1105      C1349   1.479       .  S
C1106      C1410   1.522       .  S
C1107      C1301   1.477       .  S
O1108      H1144   0.990       .  S
O1109      C1111   1.286       .  A
O1110      C1111   1.283       .  A
C1111      C1333   1.476       .  S
O1112     Zr1113   2.441       .  S
O1112      H1141   0.990       .  S
Zr1113     O1116   2.438       .  S
Zr1113     O1117   2.439       .  S
Zr1113     O1118   2.437       .  S
O1114      C1119   1.287       .  A
O1115      H1132   0.990       .  S
O1115      H1147   0.990       .  S
O1116      H1133   0.990       .  S
O1117      H1137   0.990       .  S
O1117      H1146   0.989       .  S
O1118      C1119   1.284       .  A
C1119      C1394   1.488       .  S
O1120      H1139   0.990       .  S
O1120      H1143   0.990       .  S
O1121      H1135   0.990       .  S
O1121      H1142   0.990       .  S
O1122      C1126   1.286       .  A
O1123      C1126   1.282       .  A
O1124      H1134   0.991       .  S
O1125      H1138   0.990       .  S
C1126      C1314   1.481       .  S
C1149      C1250   1.614       .  S
C1149      C1266   1.581       .  S
C1149      C1285   1.597       .  S
C1149      C1317   1.593       .  S
C1150      C1218   1.624       .  S
C1150      C1237   1.579       .  S
C1150      C1253   1.586       .  S
C1150      C1298   1.600       .  S
Zr1151     O1152   2.440       .  S
Zr1151     O1153   2.426       .  S
Zr1151     O1154   2.434       .  S
Zr1151     O1157   2.421   1_545  S
Zr1151     O1160   2.374   1_545  S
Zr1151     O1162   2.403   1_545  S
O1152      H1208   0.990       .  S
O1152      H1216   0.990       .  S
O1154      C1175   1.284       .  A
O1155     Zr1165   2.454       .  S
O1155      C1174   1.288       .  A
O1156     Zr1164   2.426       .  S
O1157      C1174   1.282       .  A
O1158     Zr1166   2.408   1_545  S
O1158      C1173   1.280       .  A
O1159     Zr1166   2.384   1_545  S
O1160     Zr1165   2.379       .  S
O1161     Zr1164   2.400       .  S
O1161     Zr1181   2.385   1_545  S
O1161      H1198   0.965       .  S
O1162     Zr1165   2.386       .  S
Zr1163     O1188   2.439       .  S
Zr1163     O1190   2.460       .  S
Zr1163     O1178   2.442       .  S
Zr1163     O1169   2.391       .  S
Zr1163     O1170   2.409       .  S
Zr1164     O1183   2.438       .  S
Zr1164     O1171   2.391       .  S
Zr1165     O1167   2.435       .  S
Zr1166     O1192   2.435       .  S
Zr1166     O1193   2.437       .  S
Zr1166     O1168   2.436   1_565  S
O1167      H1204   0.990       .  S
O1168      H1199   0.990       .  S
O1168      H1213   0.990       .  S
O1170      H1196   0.966       .  S
O1171     Zr1181   2.374   1_545  S
O1172     Zr1181   2.388       .  S
O1172      H1197   0.966       .  S
C1173      C1282   1.469       .  S
C1174      C1234   1.479       .  S
C1175      C1426   1.476       .  S
O1176      H1212   0.990       .  S
O1177      C1179   1.278       .  A
O1178      C1179   1.284   1_565  A
C1179      C1269   1.466       .  S
O1180     Zr1181   2.439   1_545  S
O1180      H1209   0.990       .  S
Zr1181     O1184   2.438   1_565  S
Zr1181     O1185   2.440       .  S
Zr1181     O1186   2.404       .  S
O1182      C1187   1.282       .  A
O1183      H1200   0.990       .  S
O1183      H1215   0.990       .  S
O1184      H1201   0.990       .  S
O1185      H1205   0.990       .  S
O1185      H1214   0.989       .  S
O1186      C1187   1.278       .  A
C1187      C1221   1.469       .  S
O1188      H1207   0.990       .  S
O1188      H1211   0.991       .  S
O1189      H1210   0.990       .  S
O1190      C1194   1.290       .  A
O1192      H1202   0.990       .  S
C1194      C1365   1.487       .  S
C1217      C1218   1.441       .  A
C1217      C1222   1.402       .  A
C1217      H1224   1.068       .  S
C1218      C1219   1.456       .  A
C1219      C1226   1.523   1_565  S
C1219      C1220   1.410       .  A
C1220      C1221   1.389       .  A
C1220      H1225   1.085   1_565  S
C1221      C1222   1.394       .  A
C1222      C1223   1.523       .  S
C1223      F1227   1.385       .  S
C1223      F1228   1.383       .  S
C1223      F1229   1.383       .  S
C1226      F1230   1.363       .  S
C1226      F1231   1.381       .  S
C1226      F1232   1.385       .  S
C1233      C1234   1.389       .  A
C1233      C1238   1.415       .  A
C1233      H1240   1.083       .  S
C1234      C1235   1.404       .  A
C1235      C1242   1.506       .  S
C1235      C1236   1.399       .  A
C1236      C1237   1.417       .  A
C1236      H1241   1.074       .  S
C1237      C1238   1.459       .  A
C1238      C1239   1.526       .  S
C1239      F1243   1.385       .  S
C1239      F1244   1.377       .  S
C1239      F1245   1.367       .  S
C1242      F1246   1.382       .  S
C1242      F1247   1.382       .  S
C1242      F1248   1.382       .  S
C1249      C1250   1.416       .  A
C1249      C1254   1.411       .  A
C1249      H1256   1.079       .  S
C1250      C1251   1.452   1_545  A
C1251      C1258   1.540       .  S
C1251      C1252   1.412       .  A
C1252      C1253   1.416       .  A
C1252      H1257   1.075       .  S
C1253      C1254   1.453   1_565  A
C1254      C1255   1.543       .  S
C1255      F1259   1.386       .  S
C1255      F1260   1.362       .  S
C1255      F1261   1.385       .  S
C1258      F1262   1.376       .  S
C1258      F1263   1.375       .  S
C1258      F1264   1.386       .  S
C1265      C1266   1.427       .  A
C1265      C1270   1.397       .  A
C1265      H1272   1.080       .  S
C1266      C1267   1.462       .  A
C1267      C1274   1.532       .  S
C1267      C1268   1.415       .  A
C1268      C1269   1.390       .  A
C1268      H1273   1.083       .  S
C1269      C1270   1.398       .  A
C1270      C1271   1.521       .  S
C1271      F1275   1.385       .  S
C1271      F1276   1.381       .  S
C1271      F1277   1.383       .  S
C1274      F1278   1.376       .  S
C1274      F1279   1.377   1_545  S
C1274      F1280   1.384   1_645  S
C1281      C1282   1.388       .  A
C1281      C1286   1.411       .  A
C1281      H1288   1.085       .  S
C1282      C1283   1.405       .  A
C1283      C1290   1.523   1_545  S
C1283      C1284   1.400       .  A
C1284      C1285   1.424       .  A
C1284      H1289   1.078   1_545  S
C1285      C1286   1.463       .  A
C1286      C1287   1.538       .  S
C1287      F1291   1.387       .  S
C1287      F1292   1.378       .  S
C1287      F1293   1.373       .  S
C1290      F1294   1.374       .  S
C1290      F1295   1.377       .  S
C1290      F1296   1.382       .  S
C1297      C1298   1.431       .  A
C1297      C1302   1.397       .  A
C1297      H1304   1.078       .  S
C1298      C1299   1.450       .  A
C1299      C1306   1.519       .  S
C1299      C1300   1.412       .  A
C1300      C1301   1.394       .  A
C1300      H1305   1.086       .  S
C1301      C1302   1.407       .  A
C1302      C1303   1.522       .  S
C1303      F1307   1.385       .  S
C1303      F1308   1.378       .  S
C1303      F1309   1.382       .  S
C1306      F1310   1.382       .  S
C1306      F1311   1.362       .  S
C1306      F1312   1.385       .  S
C1313      C1314   1.394       .  A
C1313      C1318   1.413       .  A
C1313      H1320   1.083       .  S
C1314      C1315   1.408       .  A
C1315      C1322   1.519       .  S
C1315      C1316   1.407       .  A
C1316      C1317   1.427       .  A
C1316      H1321   1.075       .  S
C1317      C1318   1.450       .  A
C1318      C1319   1.532       .  S
C1319      F1323   1.385       .  S
C1319      F1324   1.372       .  S
C1319      F1325   1.378       .  S
C1322      F1326   1.381       .  S
C1322      F1327   1.383       .  S
C1322      F1328   1.384       .  S
C1329      C1330   1.423       .  A
C1329      C1334   1.407       .  A
C1329      H1336   1.076       .  S
C1330      C1331   1.458       .  A
C1331      C1338   1.539       .  S
C1331      C1332   1.411       .  A
C1332      C1333   1.391       .  A
C1332      H1337   1.085       .  S
C1333      C1334   1.404       .  A
C1334      C1335   1.518       .  S
C1335      F1339   1.385       .  S
C1335      F1340   1.382       .  S
C1335      F1341   1.383       .  S
C1338      F1342   1.387       .  S
C1338      F1343   1.373       .  S
C1338      F1344   1.376       .  S
C1345      C1346   1.433       .  A
C1345      C1350   1.413       .  A
C1345      H1352   1.074       .  S
C1346      C1347   1.455       .  A
C1347      C1354   1.525       .  S
C1347      C1348   1.409       .  A
C1348      C1349   1.387       .  A
C1348      H1353   1.084       .  S
C1349      C1350   1.401       .  A
C1350      C1351   1.516       .  S
C1351      F1355   1.384       .  S
C1351      F1356   1.383       .  S
C1351      F1357   1.384       .  S
C1354      F1360   1.386       .  S
C1361      C1362   1.427       .  A
C1361      C1366   1.406       .  A
C1361      H1368   1.069       .  S
C1362      C1363   1.455   1_655  A
C1364      H1369   1.085       .  S
C1365      C1366   1.406       .  A
C1366      C1367   1.521       .  S
C1367      F1371   1.385       .  S
C1367      F1372   1.381       .  S
C1367      F1373   1.383       .  S
C1370      F1374   1.370       .  S
C1370      F1375   1.381       .  S
C1370      F1376   1.387       .  S
C1377      C1378   1.424   1_556  A
C1378      C1379   1.443       .  A
C1379      C1380   1.408       .  A
C1380      H1385   1.084       .  S
C1381      C1382   1.452       .  A
C1382      C1383   1.548       .  S
C1383      F1387   1.378   1_655  S
C1383      F1388   1.372       .  S
C1383      F1389   1.385       .  S
C1386      F1391   1.365       .  S
C1386      F1392   1.387       .  S
C1393      C1394   1.398       .  A
C1393      C1398   1.418       .  A
C1393      H1400   1.086       .  S
C1394      C1395   1.405       .  A
C1395      C1402   1.519       .  S
C1395      C1396   1.407       .  A
C1396      C1397   1.430       .  A
C1396      H1401   1.077       .  S
C1397      C1398   1.448       .  A
C1398      C1399   1.524       .  S
C1399      F1403   1.387       .  S
C1399      F1404   1.372   1_556  S
C1399      F1405   1.378       .  S
C1402      F1406   1.383       .  S
C1402      F1407   1.381       .  S
C1402      F1408   1.384       .  S
C1409      C1410   1.400       .  A
C1409      C1414   1.412       .  A
C1409      H1416   1.083       .  S
C1410      C1411   1.427       .  A
C1411      C1418   1.520       .  S
C1411      C1412   1.422       .  A
C1412      C1413   1.416       .  A
C1412      H1417   1.081       .  S
C1413      C1414   1.458       .  A
C1414      C1415   1.541       .  S
C1415      F1419   1.387       .  S
C1415      F1420   1.378       .  S
C1415      F1421   1.372       .  S
C1418      F1422   1.384       .  S
C1418      F1423   1.379       .  S
C1418      F1424   1.385       .  S
C1425      C1430   1.409       .  A
C1425      H1432   1.083       .  S
C1426      C1427   1.401       .  A
C1427      C1428   1.406       .  A
C1428      C1429   1.427       .  A
C1428      H1433   1.075       .  S
C1430      C1431   1.538       .  S
C1431      F1435   1.386       .  S
C1431      F1437   1.376   1_554  S
C1434      F1438   1.383       .  S
C1434      F1439   1.382       .  S
C1434      F1440   1.384       .  S
