geometry optimzed in LAMMPS
_audit_creation_date              2020-11-30 
_audit_creation_method            'lammps2cif' 
_symmetry_space_group_name_H-M    'P1' 
_symmetry_Int_Tables_number       1 
_symmetry_cell_setting            triclinic 
loop_ 
_symmetry_equiv_pos_as_xyz 
  x,y,z 
_cell_length_a                    35.01963624 
_cell_length_b                    34.91062351159255 
_cell_length_c                    33.27025648757254 
_cell_angle_alpha                 90.98689296497216 
_cell_angle_beta                  90.74985522176235 
_cell_angle_gamma                 89.66362418113442 
loop_ 
_atom_site_label 
_atom_site_type_symbol 
_atom_site_fract_x 
_atom_site_fract_y 
_atom_site_fract_z 
_atom_site_charge 
O1          O  0.45252521  0.42826057  0.03456836    -0.78400
O2          O  0.52901868  0.44093094  0.45723537    -0.78400
O3          O  0.43910558  0.45516586  0.44554507    -0.78400
O4          O  0.56750492  0.48381402  0.05577622    -0.78400
O5          O  0.48073459  0.46629465  0.39752012    -0.78500
O6          O  0.52751349  0.43547032  0.05345039    -0.78400
O7          O  0.57325195  0.48323351  0.47538864    -0.78400
O8          O  0.40757999  0.46835043  0.01873500    -0.78400
C9          C  0.41750298  0.43535838  0.03004388     1.11300
C10         C  0.56386181  0.45071069  0.45983082     1.11200
C11         C  0.45051957  0.45045913  0.40890240     1.11300
C12         C  0.55954374  0.44923892  0.06294715     1.11200
O13         O  0.51276332  0.50627139  0.09765732    -0.78400
O14         O  0.45729065  0.53075517  0.43652822    -0.78500
O15         O  0.44014886  0.54323924  0.02619830    -0.78400
O16         O  0.52956111  0.55645352  0.47481203    -0.78400
O17         O  0.53175081  0.51553299  0.42560886    -0.78500
O18         O  0.43889815  0.50248048  0.07597428    -0.78400
O19         O  0.52179555  0.55227501  0.05470268    -0.78400
O20         O  0.39951608  0.51984436  0.46012989    -0.78400
Co21       Co  0.48337956  0.46815235  0.06222807     1.51500
Co22       Co  0.49200691  0.48305400  0.45012563     1.51700
Co23       Co  0.44280029  0.50092986  0.48708109     1.51600
Co24       Co  0.54509707  0.51847514  0.01459998     1.51500
O25         O  0.49487937  0.49167562  0.00891862    -1.40300
C26         C  0.52068614  0.54108578  0.09044457     1.11200
C27         C  0.42119749  0.53891364  0.43795906     1.11300
C28         C  0.43269782  0.53585432  0.06230692     1.11200
C29         C  0.53797158  0.54883621  0.43908021     1.11200
O30         O  0.53012413  0.98507805  0.09886057    -0.78400
O31         O  0.56139103  0.04642309  0.44570579    -0.78400
O32         O  0.51792790  0.92841859  0.46703402    -0.78400
O33         O  0.52610875  0.09163271  0.03765329    -0.78400
O34         O  0.55838153  0.97268854  0.45552009    -0.78500
O35         O  0.55828368  0.03830605  0.04801444    -0.78400
O36         O  0.52366288  0.09593493  0.45423340    -0.78400
O37         O  0.54151803  0.95494912  0.04153241    -0.78400
C38         C  0.54924309  0.96009870  0.07941199     1.11300
C39         C  0.55549330  0.08167233  0.44314867     1.11200
C40         C  0.55014615  0.93792229  0.45371229     1.11300
C41         C  0.55583672  0.07447062  0.05148719     1.11200
O42         O  0.48381959  0.04860491  0.08314960    -0.78400
O43         O  0.48054510  0.97092882  0.41853421    -0.78500
O44         O  0.47164138  0.92032876  0.03306415    -0.78400
O45         O  0.44648646  0.06443602  0.45456787    -0.78400
O46         O  0.48576163  0.04748907  0.40641049    -0.78500
O47         O  0.46020731  0.97728129  0.06018424    -0.78400
O48         O  0.44643482  0.06239538  0.03327560    -0.78400
O49         O  0.44510018  0.96606171  0.47250109    -0.78400
Co50       Co  0.51106029  0.00738685  0.05036250     1.51500
Co51       Co  0.52104132  0.00970137  0.43504443     1.51700
Co52       Co  0.49155533  0.96404336  0.00721190     1.51600
Co53       Co  0.48625494  0.07511079  0.99503670     1.51500
O54         O  0.50199912  0.01886582  0.99160366    -1.40300
C55         C  0.45238912  0.06233830  0.07044834     1.11200
C56         C  0.44909037  0.96181037  0.43481448     1.11300
C57         C  0.45257650  0.94110344  0.05726315     1.11200
C58         C  0.45314832  0.05950708  0.41782827     1.11200
O59         O  0.94674502  0.54616963  0.04594094    -0.78400
O60         O  0.08697413  0.53089988  0.45809014    -0.78400
O61         O  0.02941405  0.56289103  0.05121966    -0.78400
O62         O  0.96369762  0.56551904  0.46013758    -0.78400
O63         O  0.08217196  0.52992193  0.04093686    -0.78500
O64         O  0.92028051  0.52378690  0.46999770    -0.78400
O65         O  0.03844027  0.57013934  0.45068591    -0.78400
O66         O  0.97757982  0.53319417  0.10238572    -0.78400
C67         C  0.95249159  0.55280790  0.08399150     1.11300
C68         C  0.07350170  0.56332224  0.44754037     1.11200
C69         C  0.06528097  0.55985737  0.05473573     1.11300
C70         C  0.92936032  0.55615286  0.45656456     1.11200
O71         O  0.95882466  0.45167777  0.47366802    -0.78400
O72         O  0.05266610  0.45047967  0.03362586    -0.78500
O73         O  0.96944502  0.46488796  0.06146046    -0.78400
O74         O  0.04018996  0.49563340  0.40842729    -0.78400
O75         O  0.05482935  0.45400104  0.45482793    -0.78500
O76         O  0.91231072  0.47646794  0.03544898    -0.78400
O77         O  0.96408713  0.48851922  0.42066876    -0.78400
O78         O  0.03996018  0.48715214  0.08461766    -0.78400
Co79       Co  0.95587069  0.49721285  0.00973723     1.51500
Co80       Co  0.06582037  0.49183064  0.99700729     1.51700
Co81       Co  0.99905962  0.51573231  0.05293810     1.51600
Co82       Co  0.00177863  0.52952937  0.43844577     1.51500
O83         O  0.01030050  0.50834560  0.99409037    -1.40300
C84         C  0.95603065  0.45621873  0.43594224     1.11200
C85         C  0.05274887  0.45548887  0.07101189     1.11300
C86         C  0.93341153  0.45763432  0.05935897     1.11200
C87         C  0.05224257  0.46254091  0.41839058     1.11200
C88         C  0.25371934  0.25741765  0.28207205     0.47200
H89         H  0.25887603  0.26564741  0.31338043    -0.01800
C90         C  0.23964980  0.24244797  0.20664734     0.47200
H91         H  0.23296490  0.23531377  0.17480535    -0.01800
C92         C  0.28017962  0.27855970  0.25246147    -0.15500
C93         C  0.25845554  0.21417590  0.27158901    -0.15300
C94         C  0.21307645  0.26886702  0.26903274    -0.15700
C95         C  0.27233061  0.27082357  0.21250346    -0.15600
C96         C  0.25391224  0.20708606  0.23060265    -0.15200
C97         C  0.20576640  0.26212923  0.22881270    -0.15500
C98         C  0.75216981  0.25770494  0.21498006     0.47200
H99         H  0.74803886  0.25392627  0.18218573    -0.01800
C100        C  0.76229949  0.26420366  0.29179939     0.47200
H101        H  0.76814981  0.26680384  0.32449983    -0.01800
C102        C  0.72755372  0.28935874  0.23474890    -0.15500
C103        C  0.74096234  0.22134395  0.23708639    -0.15300
C104        C  0.79324570  0.26914608  0.22634846    -0.15700
C105        C  0.73252529  0.29287575  0.27573670    -0.15600
C106        C  0.74562089  0.22477509  0.27849115    -0.15200
C107        C  0.79857574  0.27233159  0.26744904    -0.15500
C108        C  0.25287965  0.75294690  0.20935162     0.47200
H109        H  0.24708288  0.74919150  0.17672710    -0.01800
C110        C  0.26392764  0.75982595  0.28619310     0.47200
H111        H  0.26916057  0.76347274  0.31898218    -0.01800
C112        C  0.28539027  0.72757832  0.22511668    -0.15500
C113        C  0.26548270  0.79387402  0.22218202    -0.15300
C114        C  0.21812805  0.74083847  0.23416059    -0.15700
C115        C  0.29108701  0.73101422  0.26581228    -0.15600
C116        C  0.27064288  0.79733475  0.26351642    -0.15200
C117        C  0.22376866  0.74419836  0.27530980    -0.15500
C118        C  0.73328968  0.74304461  0.29205569     0.47200
H119        H  0.73421056  0.74466039  0.32532112    -0.01800
C120        C  0.72973980  0.73735149  0.21423200     0.47200
H121        H  0.72809819  0.73513436  0.18118523    -0.01800
C122        C  0.70315833  0.71517859  0.27684655    -0.15500
C123        C  0.72184429  0.78110560  0.27161190    -0.15300
C124        C  0.77038736  0.72715373  0.27333681    -0.15700
C125        C  0.70085652  0.71184479  0.23602208    -0.15600
C126        C  0.72082332  0.77830459  0.22994532    -0.15200
C127        C  0.76917337  0.72560258  0.23175387    -0.15500
C128        C  0.08658936  0.64473320  0.12520315     0.14400
C129        C  0.12591702  0.64038746  0.13259193     0.01400
C130        C  0.14587231  0.61124687  0.11185762     0.16300
C131        C  0.12664972  0.58615617  0.08518926     0.25800
C132        C  0.08682386  0.58943969  0.07883700    -0.40600
C133        C  0.06725728  0.61976281  0.09862893     0.32800
C134        C  0.14617756  0.66657728  0.16147524     0.01400
F135        F  0.18417707  0.60721502  0.11727111    -0.12900
F136        F  0.02909390  0.62497001  0.09317529    -0.13400
C137        C  0.16529291  0.65208414  0.19545463     0.16300
C138        C  0.18643622  0.67648148  0.22113685     0.25800
C139        C  0.18894229  0.71602621  0.21330365    -0.40500
C140        C  0.16869951  0.73053197  0.18006161     0.32700
C141        C  0.14740844  0.70616150  0.15455706     0.14400
F142        F  0.16445175  0.61400986  0.20309651    -0.12900
F143        F  0.17094978  0.76827665  0.17129416    -0.13400
F144        F  0.20704273  0.66070523  0.25147638    -0.15700
F145        F  0.12956299  0.72096309  0.12181018    -0.14200
F146        F  0.06655632  0.67260533  0.14474437    -0.14200
F147        F  0.14713837  0.55842666  0.06597621    -0.15700
C148        C  0.14568271  0.60760905  0.37808229     0.14400
C149        C  0.13502419  0.64660745  0.37936432     0.01400
C150        C  0.10545097  0.65825455  0.40501304     0.16300
C151        C  0.08668135  0.63143894  0.42858553     0.25800
C152        C  0.09719409  0.59228961  0.42718368    -0.40600
C153        C  0.12713062  0.58079379  0.40183358     0.32800
C154        C  0.15630568  0.67506366  0.35544625     0.01400
F155        F  0.09506446  0.69573568  0.40767108    -0.12900
F156        F  0.13718594  0.54327489  0.39840735    -0.13400
C157        C  0.13809941  0.69792088  0.32636835     0.16300
C158        C  0.15948785  0.72253513  0.30232772     0.25800
C159        C  0.19973905  0.72391586  0.30591278    -0.40500
C160        C  0.21716911  0.70262893  0.33716512     0.32700
C161        C  0.19575143  0.67877980  0.36137164     0.14400
F162        F  0.09980434  0.69536142  0.32016060    -0.12900
F163        F  0.25528877  0.70304608  0.34397447    -0.13400
F164        F  0.14080463  0.74450246  0.27505894    -0.15700
F165        F  0.21390520  0.65859053  0.39055479    -0.14200
F166        F  0.17352420  0.59528104  0.35287004    -0.14200
F167        F  0.05807236  0.64383737  0.45281674    -0.15700
C168        C  0.10986218  0.41683945  0.33424748     0.14400
C169        C  0.11053879  0.37827844  0.34628998     0.01400
C170        C  0.08704134  0.36731618  0.37786829     0.16300
C171        C  0.06523387  0.39454045  0.39870939     0.25800
C172        C  0.06674556  0.43366305  0.38891247    -0.40600
C173        C  0.08793749  0.44433956  0.35529345     0.32800
C174        C  0.13700101  0.34958738  0.32783926     0.01400
F175        F  0.08707810  0.33047597  0.39031914    -0.12900
F176        F  0.08954430  0.48162479  0.34453976    -0.13400
C177        C  0.17676361  0.35450937  0.33083608     0.16300
C178        C  0.20180783  0.32689940  0.31471769     0.25800
C179        C  0.18754184  0.29387606  0.29463712    -0.40500
C180        C  0.14772472  0.28815452  0.29367440     0.32700
C181        C  0.12277868  0.31582101  0.30970573     0.14400
F182        F  0.19141094  0.38623769  0.34935150    -0.12900
F183        F  0.13288512  0.25620825  0.27582230    -0.13400
F184        F  0.23981726  0.33406976  0.31637621    -0.15700
F185        F  0.08453856  0.31010351  0.30655610    -0.14200
F186        F  0.13129915  0.42802952  0.30288668    -0.14200
F187        F  0.04396742  0.38279977  0.43001521    -0.15700
C188        C  0.10455340  0.36405669  0.10188808     0.14400
C189        C  0.10204005  0.36515782  0.14385968     0.01400
C190        C  0.08130638  0.39534363  0.16227876     0.16300
C191        C  0.06455410  0.42454172  0.13903866     0.25800
C192        C  0.06832367  0.42414683  0.09688594    -0.40600
C193        C  0.08798494  0.39289704  0.07873629     0.32800
C194        C  0.12575745  0.33798800  0.16788336     0.01400
F195        F  0.07790821  0.39687937  0.20288624    -0.12900
F196        F  0.09275385  0.39068014  0.03831996    -0.13400
C197        C  0.15549952  0.35260384  0.19202132     0.16300
C198        C  0.18160219  0.32802550  0.21049251     0.25800
C199        C  0.17822799  0.28780336  0.20664913    -0.40500
C200        C  0.14847412  0.27296164  0.18243635     0.32700
C201        C  0.12248053  0.29782974  0.16309153     0.14400
F202        F  0.16056532  0.39102881  0.19609238    -0.12900
F203        F  0.14453391  0.23450107  0.17767745    -0.13400
F204        F  0.21105293  0.34388612  0.23134999    -0.15700
F205        F  0.09420739  0.28275876  0.13956060    -0.14200
F206        F  0.12524041  0.33611593  0.08322017    -0.14200
F207        F  0.04507226  0.45324612  0.15783926    -0.15700
C208        C  0.87110949  0.40620160  0.13233252     0.14400
C209        C  0.88532744  0.36839012  0.12974522     0.01400
C210        C  0.91714671  0.36061481  0.10551138     0.16300
C211        C  0.93344730  0.38992107  0.08312734     0.25800
C212        C  0.91743729  0.42698332  0.08382272    -0.40600
C213        C  0.88660904  0.43503876  0.10910035     0.32800
C214        C  0.86415711  0.33729967  0.14956455     0.01400
F215        F  0.93131804  0.32445310  0.10210215    -0.12900
F216        F  0.87190375  0.47106506  0.11179272    -0.13400
C217        C  0.82504752  0.33372108  0.14148712     0.16300
C218        C  0.80243178  0.31036886  0.16466957     0.25800
C219        C  0.81850947  0.28841033  0.19619592    -0.40500
C220        C  0.85874987  0.28802387  0.20031606     0.32700
C221        C  0.88129107  0.31300405  0.17796036     0.14400
F222        F  0.80815737  0.35447175  0.11189953    -0.12900
F223        F  0.87623953  0.26417011  0.22663404    -0.13400
F224        F  0.76452754  0.31166431  0.15674750    -0.15700
F225        F  0.91944562  0.31465393  0.18538740    -0.14200
F226        F  0.84165374  0.41504042  0.15706365    -0.14200
F227        F  0.96382310  0.38178239  0.05945340    -0.15700
C228        C  0.90340488  0.36607121  0.40044566     0.14400
C229        C  0.90362734  0.36978746  0.35834261     0.01400
C230        C  0.92437915  0.40011215  0.34204029     0.16300
C231        C  0.94230101  0.42741432  0.36713751     0.25800
C232        C  0.94052478  0.42483283  0.40937980    -0.40600
C233        C  0.92187399  0.39299863  0.42562699     0.32800
C234        C  0.87974621  0.34410248  0.33186005     0.01400
F235        F  0.92691535  0.40367643  0.30158267    -0.12900
F236        F  0.91984650  0.38866245  0.46602103    -0.13400
C237        C  0.85343692  0.35998986  0.30429024     0.16300
C238        C  0.82871142  0.33646516  0.28169546     0.25800
C239        C  0.82877823  0.29656749  0.28696527    -0.40500
C240        C  0.85523021  0.28050451  0.31396845     0.32700
C241        C  0.88105642  0.30391184  0.33556791     0.14400
F242        F  0.85003464  0.39856500  0.30083938    -0.12900
F243        F  0.85586899  0.24207907  0.31951254    -0.13400
F244        F  0.80304462  0.35298446  0.25638447    -0.15700
F245        F  0.90717476  0.28728911  0.36032464    -0.14200
F246        F  0.88347174  0.33749243  0.41750902    -0.14200
F247        F  0.96094161  0.45673489  0.34981884    -0.15700
C248        C  0.84399124  0.59269710  0.39456691     0.14400
C249        C  0.85749248  0.62858794  0.38199234     0.01400
C250        C  0.89348723  0.64076747  0.39608412     0.16300
C251        C  0.91533947  0.61817213  0.42199690     0.25800
C252        C  0.90265760  0.58170552  0.43373154    -0.40600
C253        C  0.86646197  0.56937154  0.41988570     0.32800
C254        C  0.83495617  0.65348050  0.35389341     0.01400
F255        F  0.90847291  0.67420493  0.38346619    -0.12900
F256        F  0.85318773  0.53438037  0.42985622    -0.13400
C257        C  0.82942243  0.69275085  0.36286247     0.16300
C258        C  0.81067620  0.71683346  0.33552468     0.25800
C259        C  0.79579366  0.70228123  0.29894794    -0.40500
C260        C  0.80052168  0.66272143  0.29038035     0.32700
C261        C  0.82044002  0.63887932  0.31710612     0.14400
F262        F  0.84147672  0.70779562  0.39869822    -0.12900
F263        F  0.78461604  0.64646813  0.25690699    -0.13400
F264        F  0.80669534  0.75455854  0.34510761    -0.15700
F265        F  0.82572756  0.60145855  0.30672508    -0.14200
F266        F  0.80902297  0.58013684  0.38240592    -0.14200
F267        F  0.94968766  0.63199164  0.43470247    -0.15700
C268        C  0.88928592  0.64016185  0.10281188     0.14400
C269        C  0.88605149  0.64042551  0.14487184     0.01400
C270        C  0.90697539  0.61344813  0.16714158     0.16300
C271        C  0.92937242  0.58557048  0.14755914     0.25800
C272        C  0.93119553  0.58407472  0.10518822    -0.40600
C273        C  0.91154040  0.61236187  0.08315723     0.32800
C274        C  0.85719987  0.66545187  0.16478983     0.01400
F275        F  0.90398707  0.61271083  0.20777450    -0.12900
F276        F  0.91343729  0.61304955  0.04243901    -0.13400
C277        C  0.81859090  0.66128258  0.15412832     0.16300
C278        C  0.79043702  0.68260952  0.17377451     0.25800
C279        C  0.79988233  0.70767911  0.20614906    -0.40500
C280        C  0.83895362  0.71338032  0.21536850     0.32700
C281        C  0.86732263  0.69237328  0.19494162     0.14400
F282        F  0.80782721  0.63511010  0.12555097    -0.12900
F283        F  0.84970011  0.73938184  0.24407905    -0.13400
F284        F  0.75388744  0.67705782  0.16157515    -0.15700
F285        F  0.90463466  0.69829174  0.20456770    -0.14200
F286        F  0.86999996  0.66641429  0.08061913    -0.14200
F287        F  0.94777967  0.55899842  0.17010830    -0.15700
C288        C  0.67925972  0.19790879  0.36345361     0.14400
C289        C  0.67253735  0.15924531  0.35506243     0.01400
C290        C  0.69437977  0.14037114  0.32542374     0.16300
C291        C  0.72031697  0.16098155  0.30233846     0.25800
C292        C  0.72419698  0.20091790  0.30794838    -0.40600
C293        C  0.70471551  0.21842769  0.34063934     0.32800
C294        C  0.64249831  0.13947244  0.37764311     0.01400
F295        F  0.68972676  0.10233798  0.31794983    -0.12900
F296        F  0.70873829  0.25575360  0.35084916    -0.13400
C297        C  0.60461404  0.15335435  0.37693851     0.16300
C298        C  0.57639719  0.13603138  0.39985317     0.25800
C299        C  0.58561620  0.10445241  0.42384773    -0.40500
C300        C  0.62383154  0.09113001  0.42490606     0.32700
C301        C  0.65188161  0.10847199  0.40206583     0.14400
F302        F  0.59483029  0.18328180  0.35329076    -0.12900
F303        F  0.63413261  0.06095198  0.44796856    -0.13400
F304        F  0.53984940  0.14896557  0.39697937    -0.15700
F305        F  0.68841619  0.09535015  0.40432699    -0.14200
F306        F  0.66060780  0.21621179  0.39384287    -0.14200
F307        F  0.74138992  0.14194277  0.27438935    -0.15700
C308        C  0.65130272  0.17408588  0.19205849     0.14400
C309        C  0.66582081  0.15510219  0.15769768     0.01400
C310        C  0.70570126  0.15491188  0.15237867     0.16300
C311        C  0.73016893  0.17402228  0.17998891     0.25800
C312        C  0.71566699  0.19350223  0.21403756    -0.40600
C313        C  0.67581111  0.19299692  0.21983131     0.32800
C314        C  0.63943343  0.13530926  0.12781858     0.01400
F315        F  0.72091770  0.13768115  0.11933791    -0.12900
F316        F  0.66017801  0.21334071  0.25065122    -0.13400
C317        C  0.61024818  0.15551107  0.10745746     0.16300
C318        C  0.58410312  0.13631280  0.08153173     0.25800
C319        C  0.58625723  0.09615485  0.07521965    -0.40500
C320        C  0.61661334  0.07638465  0.09453408     0.32700
C321        C  0.64267589  0.09566808  0.12023888     0.14400
F322        F  0.60706453  0.19406138  0.11260976    -0.12900
F323        F  0.62068773  0.03789614  0.08968533    -0.13400
F324        F  0.55630384  0.15717558  0.06317212    -0.15700
F325        F  0.67040688  0.07511066  0.13908510    -0.14200
F326        F  0.61309868  0.17493707  0.19839696    -0.14200
F327        F  0.76818341  0.17490036  0.17255487    -0.15700
C328        C  0.39226062  0.08758636  0.16273997     0.14400
C329        C  0.36197191  0.10867477  0.14521214     0.01400
C330        C  0.36185137  0.11400080  0.10357180     0.16300
C331        C  0.39123152  0.09918545  0.07991785     0.25800
C332        C  0.42191167  0.07823946  0.09713485    -0.40600
C333        C  0.42202338  0.07263090  0.13895603     0.32800
C334        C  0.33334070  0.12978288  0.17013138     0.01400
F335        F  0.33415259  0.13549707  0.08580859    -0.12900
F336        F  0.45087551  0.05288029  0.15688391    -0.13400
C337        C  0.34616778  0.15682476  0.19871162     0.16300
C338        C  0.32049153  0.18154400  0.21773322     0.25800
C339        C  0.28085420  0.17969474  0.20960494    -0.40500
C340        C  0.26772486  0.15218082  0.18142604     0.32700
C341        C  0.29369653  0.12724780  0.16202850     0.14400
F342        F  0.38406604  0.16091131  0.20673124    -0.12900
F343        F  0.22981700  0.14921824  0.17303664    -0.13400
F344        F  0.33488196  0.20796961  0.24375693    -0.15700
F345        F  0.28021816  0.10085161  0.13505589    -0.14200
F346        F  0.39318574  0.08176363  0.20298559    -0.14200
F347        F  0.38998248  0.10672368  0.04000193    -0.15700
C348        C  0.35395894  0.07775217  0.37611056     0.14400
C349        C  0.36075890  0.10758427  0.34943070     0.01400
C350        C  0.39876385  0.11709197  0.34065607     0.16300
C351        C  0.42943698  0.09867702  0.36007761     0.25800
C352        C  0.42255642  0.07090510  0.38911511    -0.40600
C353        C  0.38455928  0.05985240  0.39609935     0.32800
C354        C  0.32888528  0.13240895  0.33506162     0.01400
F355        F  0.40604402  0.14587465  0.31496063    -0.12900
F356        F  0.37699634  0.03318949  0.42411634    -0.13400
C357        C  0.32589381  0.17001712  0.35005267     0.16300
C358        C  0.29932482  0.19569297  0.33370706     0.25800
C359        C  0.27629871  0.18488918  0.30006542    -0.40500
C360        C  0.27446602  0.14508180  0.29083453     0.32700
C361        C  0.30137178  0.11937068  0.30710535     0.14400
F362        F  0.34939377  0.18217956  0.38040318    -0.12900
F363        F  0.24739604  0.13116062  0.26502657    -0.13400
F364        F  0.29721789  0.23080768  0.35133094    -0.15700
F365        F  0.30152585  0.08223956  0.29430819    -0.14200
F366        F  0.31762735  0.06800163  0.38513093    -0.14200
F367        F  0.46559160  0.11058801  0.35336270    -0.15700
C368        C  0.61220181  0.91362096  0.15991802     0.14400
C369        C  0.63864423  0.89271515  0.13677074     0.01400
C370        C  0.63681614  0.89557697  0.09465839     0.16300
C371        C  0.60846946  0.91806419  0.07604826     0.25800
C372        C  0.58105217  0.93816823  0.09917900    -0.40600
C373        C  0.58381467  0.93609195  0.14144957     0.32800
C374        C  0.66440227  0.86420615  0.15646240     0.01400
F375        F  0.66212556  0.87592813  0.07145790    -0.12900
F376        F  0.55794297  0.95437303  0.16509795    -0.13400
C377        C  0.65824542  0.82506165  0.14920884     0.16300
C378        C  0.67764357  0.79745460  0.17168653     0.25800
C379        C  0.70427300  0.80812456  0.20219805    -0.40500
C380        C  0.71227539  0.84747444  0.20764268     0.32700
C381        C  0.69229009  0.87523518  0.18522651     0.14400
F382        F  0.63129062  0.81342858  0.12200283    -0.12900
F383        F  0.73885772  0.85910593  0.23521828    -0.13400
F384        F  0.66757059  0.76042987  0.16536387    -0.15700
F385        F  0.69972075  0.91292574  0.19200196    -0.14200
F386        F  0.61249790  0.91050041  0.20054166    -0.14200
F387        F  0.60779193  0.91978053  0.03530208    -0.15700
C388        C  0.69086208  0.83924712  0.36305462     0.14400
C389        C  0.65250199  0.84800198  0.35363084     0.01400
C390        C  0.63861770  0.83900654  0.31486191     0.16300
C391        C  0.66164257  0.81971484  0.28694672     0.25800
C392        C  0.69995117  0.80997811  0.29647201    -0.40600
C393        C  0.71441626  0.82115955  0.33459757     0.32800
C394        C  0.62739387  0.86796353  0.38338679     0.01400
F395        F  0.60212656  0.84793321  0.30417855    -0.12900
F396        F  0.75114274  0.81307787  0.34502901    -0.13400
C397        C  0.63935107  0.90257200  0.40132688     0.16300
C398        C  0.61504874  0.92352355  0.42641907     0.25800
C399        C  0.57744099  0.91105920  0.43359757    -0.40500
C400        C  0.56586881  0.87551765  0.41707230     0.32700
C401        C  0.59072878  0.85404334  0.39239849     0.14400
F402        F  0.67399034  0.91743804  0.39273843    -0.12900
F403        F  0.53000384  0.86242022  0.42307822    -0.13400
F404        F  0.62816031  0.95706318  0.44246195    -0.15700
F405        F  0.57869521  0.81998043  0.37667724    -0.14200
F406        F  0.70520709  0.84683002  0.40044525    -0.14200
F407        F  0.64461761  0.80719722  0.25249099    -0.15700
C408        C  0.30104984  0.87491698  0.33900640     0.14400
C409        C  0.34084549  0.87648171  0.33324952     0.01400
C410        C  0.35674745  0.85363129  0.30227232     0.16300
C411        C  0.33362325  0.82979706  0.27800019     0.25800
C412        C  0.29412210  0.82740303  0.28463334    -0.40600
C413        C  0.27810375  0.85016459  0.31538722     0.32800
C414        C  0.36602980  0.90103223  0.35980075     0.01400
F415        F  0.39508187  0.85292595  0.29666968    -0.12900
F416        F  0.24011359  0.84823782  0.32263159    -0.13400
C417        C  0.36515261  0.89833645  0.40203844     0.16300
C418        C  0.39084580  0.91930379  0.42660070     0.25800
C419        C  0.41848927  0.94316391  0.40952303    -0.40500
C420        C  0.41835750  0.94680032  0.36734699     0.32700
C421        C  0.39243663  0.92620605  0.34293883     0.14400
F422        F  0.34061645  0.87394503  0.41959764    -0.12900
F423        F  0.44357577  0.97022889  0.34943129    -0.13400
F424        F  0.38974136  0.91470433  0.46701600    -0.15700
F425        F  0.39329122  0.93083595  0.30252636    -0.14200
F426        F  0.28430826  0.89741565  0.36748939    -0.14200
F427        F  0.35025212  0.80745082  0.24934981    -0.15700
C428        C  0.39766283  0.87063986  0.11912868     0.14400
C429        C  0.36184684  0.88877360  0.12393116     0.01400
C430        C  0.35661125  0.92562517  0.10790296     0.16300
C431        C  0.38634880  0.94338084  0.08708635     0.25800
C432        C  0.42132595  0.92407337  0.08078659    -0.40600
C433        C  0.42650836  0.88758726  0.09706719     0.32800
C434        C  0.33050286  0.86769033  0.14429800     0.01400
F435        F  0.32240004  0.94384683  0.11098085    -0.12900
F436        F  0.46005340  0.86844211  0.09229558    -0.13400
C437        C  0.30958075  0.88365429  0.17646551     0.16300
C438        C  0.28515920  0.86061773  0.19908722     0.25800
C439        C  0.28345059  0.82054515  0.19220408    -0.40500
C440        C  0.30200754  0.80579152  0.15753356     0.32700
C441        C  0.32376387  0.82930429  0.13341649     0.14400
F442        F  0.31405530  0.92099688  0.18738759    -0.12900
F443        F  0.30166738  0.76814163  0.14726115    -0.13400
F444        F  0.26393313  0.87750685  0.22832321    -0.15700
F445        F  0.34008196  0.81371133  0.10005435    -0.14200
F446        F  0.40495011  0.83619370  0.13606694    -0.14200
F447        F  0.38034769  0.97868174  0.07161145    -0.15700
C448        C  0.36236389  0.69539527  0.34290142     0.14400
C449        C  0.35611730  0.65586349  0.33999341     0.01400
C450        C  0.33056423  0.64091521  0.31121402     0.16300
C451        C  0.31049932  0.66537530  0.28605679     0.25800
C452        C  0.31598520  0.70520873  0.28919470    -0.40600
C453        C  0.34210069  0.72007513  0.31775230     0.32800
C454        C  0.37438211  0.62977391  0.36821026     0.01400
F455        F  0.32420029  0.60260100  0.30846649    -0.12900
F456        F  0.34734401  0.75836895  0.32193479    -0.13400
C457        C  0.35242800  0.61307144  0.39800020     0.16300
C458        C  0.36785867  0.58403616  0.42136317     0.25800
C459        C  0.40561112  0.57126092  0.41504425    -0.40500
C460        C  0.42799346  0.58941277  0.38610114     0.32700
C461        C  0.41233550  0.61844929  0.36277519     0.14400
F462        F  0.31562224  0.62423232  0.40358579    -0.12900
F463        F  0.46453692  0.57828968  0.37921367    -0.13400
F464        F  0.34552732  0.56817544  0.44962896    -0.15700
F465        F  0.43358028  0.63430413  0.33360605    -0.14200
F466        F  0.38694706  0.71000396  0.37100939    -0.14200
F467        F  0.28381578  0.65022202  0.26063954    -0.15700
C468        C  0.39812686  0.63257701  0.09943827     0.14400
C469        C  0.37645463  0.62224913  0.13257811     0.01400
C470        C  0.37542040  0.58390486  0.14438081     0.16300
C471        C  0.39463460  0.55576510  0.12225061     0.25800
C472        C  0.41511209  0.56571513  0.08786535    -0.40600
C473        C  0.41747804  0.60455168  0.07726767     0.32800
C474        C  0.35330628  0.65103030  0.15385164     0.01400
F475        F  0.35519618  0.57371179  0.17703510    -0.12900
F476        F  0.43820647  0.61546410  0.04524392    -0.13400
C477        C  0.31342320  0.64778208  0.15328608     0.16300
C478        C  0.29119542  0.67375999  0.17504420     0.25800
C479        C  0.30862827  0.70251105  0.19871717    -0.40500
C480        C  0.34854684  0.70655682  0.19811291     0.32700
C481        C  0.37076270  0.68114395  0.17543431     0.14400
F482        F  0.29608563  0.61916200  0.13188259    -0.12900
F483        F  0.36595701  0.73507451  0.21948462    -0.13400
F484        F  0.25282401  0.66962813  0.17429131    -0.15700
F485        F  0.40930296  0.68519098  0.17541502    -0.14200
F486        F  0.39935948  0.66960579  0.08769590    -0.14200
F487        F  0.39192711  0.51873635  0.13369474    -0.15700
C488        C  0.57796530  0.59953982  0.35013038     0.14400
C489        C  0.60041338  0.62752165  0.36955593     0.01400
C490        C  0.60038119  0.63127376  0.41148083     0.16300
C491        C  0.57900307  0.60632693  0.43411346     0.25800
C492        C  0.55737934  0.57727300  0.41490239    -0.40600
C493        C  0.55674585  0.57427145  0.37269520     0.32800
C494        C  0.62684619  0.65035858  0.34653045     0.01400
F495        F  0.62276792  0.65774577  0.43052695    -0.12900
F496        F  0.53618682  0.54655856  0.35333244    -0.13400
C497        C  0.62240825  0.69018389  0.34487372     0.16300
C498        C  0.64834632  0.71170766  0.32356299     0.25800
C499        C  0.67882440  0.69355297  0.30385951    -0.40500
C500        C  0.68391606  0.65386465  0.30678597     0.32700
C501        C  0.65785559  0.63228583  0.32775629     0.14400
F502        F  0.59252380  0.70796759  0.36310603    -0.12900
F503        F  0.71391224  0.63600624  0.28905280    -0.13400
F504        F  0.64277691  0.74991758  0.32103029    -0.15700
F505        F  0.66297122  0.59379638  0.33010352    -0.14200
F506        F  0.57739529  0.59624068  0.30938923    -0.14200
F507        F  0.58149178  0.60912957  0.47483775    -0.15700
C508        C  0.64945125  0.62766554  0.18783265     0.14400
C509        C  0.61133911  0.64064360  0.18824141     0.01400
C510        C  0.60312554  0.67737494  0.20378015     0.16300
C511        C  0.63263207  0.70113109  0.21741616     0.25800
C512        C  0.67078647  0.68847536  0.21614912    -0.40600
C513        C  0.67878266  0.65105716  0.20264496     0.32800
C514        C  0.58085037  0.61691116  0.16960960     0.01400
F515        F  0.56647104  0.69001870  0.20622808    -0.12900
F516        F  0.71450261  0.63621663  0.20601542    -0.13400
C517        C  0.57602798  0.57852508  0.18057908     0.16300
C518        C  0.55318616  0.55398683  0.15693982     0.25800
C519        C  0.53447305  0.56780202  0.12233543    -0.40500
C520        C  0.53595068  0.60729262  0.11433716     0.32700
C521        C  0.55931708  0.63145794  0.13739761     0.14400
F522        F  0.59523181  0.56431139  0.21281713    -0.12900
F523        F  0.51717151  0.62208357  0.08211695    -0.13400
F524        F  0.55230786  0.51620642  0.16588045    -0.15700
F525        F  0.56350445  0.66833105  0.12591494    -0.14200
F526        F  0.65838023  0.59242674  0.17268513    -0.14200
F527        F  0.62383571  0.73611828  0.23311519    -0.15700
C528        C  0.64587789  0.42320845  0.39206957     0.14400
C529        C  0.64183032  0.38325166  0.38860735     0.01400
C530        C  0.61432451  0.36510574  0.41210065     0.16300
C531        C  0.58996301  0.38676290  0.43690605     0.25800
C532        C  0.59305214  0.42692059  0.43909686    -0.43400
C533        C  0.62191456  0.44479213  0.41718607     0.32800
C534        C  0.66510865  0.36086988  0.35921194     0.01400
F535        F  0.61083658  0.32638780  0.41068536    -0.12900
F536        F  0.62525648  0.48353830  0.41780810    -0.13400
C537        C  0.70521018  0.36135238  0.36142843     0.16300
C538        C  0.72699620  0.34006332  0.33384522     0.25800
C539        C  0.70923187  0.31818406  0.30301521    -0.40500
C540        C  0.66896862  0.31805907  0.30064748     0.32700
C541        C  0.64722907  0.33928782  0.32832655     0.14400
F542        F  0.72334141  0.38179326  0.39097326    -0.12900
F543        F  0.65047532  0.29609732  0.27263210    -0.13400
F544        F  0.76554863  0.34075155  0.33757865    -0.15700
F545        F  0.60855115  0.33890549  0.32485998    -0.14200
F546        F  0.67170862  0.44165714  0.36940197    -0.14200
F547        F  0.56312150  0.36854042  0.45848351    -0.15700
C548        C  0.68160135  0.37773802  0.19197144     0.14400
C549        C  0.66019179  0.36149179  0.16034112     0.01400
C550        C  0.66129131  0.32201103  0.15270848     0.16300
C551        C  0.68179933  0.29844790  0.17808590     0.25800
C552        C  0.70320934  0.31434626  0.21021888    -0.40600
C553        C  0.70396765  0.35436685  0.21613162     0.32800
C554        C  0.63480255  0.38505518  0.13636809     0.01400
F555        F  0.64213233  0.30630762  0.12073863    -0.12900
F556        F  0.72701904  0.37103815  0.24435016    -0.13400
C557        C  0.64918464  0.41527829  0.11409971     0.16300
C558        C  0.62468928  0.43618633  0.08962867     0.25800
C559        C  0.58580868  0.42651153  0.08700818    -0.40500
C560        C  0.57149001  0.39664095  0.11023066     0.32700
C561        C  0.59589148  0.37621805  0.13490215     0.14400
F562        F  0.68693017  0.42397616  0.11551370    -0.12900
F563        F  0.53371733  0.38795245  0.11029066    -0.13400
F564        F  0.63902031  0.46556815  0.06837436    -0.15700
F565        F  0.58154670  0.34790558  0.15772736    -0.14200
F566        F  0.68043938  0.41605158  0.19968779    -0.14200
F567        F  0.68057941  0.26018849  0.17085971    -0.15700
C568        C  0.36655818  0.40572832  0.35528758     0.14400
C569        C  0.38464096  0.38498153  0.32447832     0.01400
C570        C  0.42443679  0.38608292  0.32093765     0.16300
C571        C  0.44617296  0.40732449  0.34861313     0.25800
C572        C  0.42818141  0.42719219  0.38033381    -0.40600
C573        C  0.38818391  0.42664771  0.38317687     0.32800
C574        C  0.36219965  0.35778452  0.30034973     0.01400
F575        F  0.44213937  0.36579436  0.29131878    -0.12900
F576        F  0.36995954  0.44671185  0.41261889    -0.13400
C577        C  0.33424788  0.37055694  0.27317188     0.16300
C578        C  0.30844835  0.34454926  0.25601062     0.25800
C579        C  0.30978780  0.30574978  0.26685063    -0.40500
C580        C  0.33948939  0.29301266  0.29212581     0.32700
C581        C  0.36553895  0.31880439  0.30866561     0.14400
F582        F  0.33133681  0.40827931  0.26427375    -0.12900
F583        F  0.34402241  0.25556510  0.30043861    -0.13400
F584        F  0.28181665  0.35755890  0.22966091    -0.15700
F585        F  0.39295199  0.30601524  0.33449381    -0.14200
F586        F  0.32803614  0.40434227  0.35928029    -0.14200
F587        F  0.48477429  0.40744359  0.34519622    -0.15700
C588        C  0.33502303  0.39423576  0.08567743     0.14400
C589        C  0.34597972  0.35544650  0.08765344     0.01400
C590        C  0.37659128  0.34215948  0.06425631     0.16300
C591        C  0.39825807  0.36789930  0.04248170     0.25800
C592        C  0.38929054  0.40723725  0.04336339    -0.40600
C593        C  0.35620965  0.41984228  0.06323339     0.32800
C594        C  0.32757345  0.32990017  0.11666506     0.01400
F595        F  0.38638154  0.30446289  0.06376941    -0.12900
F596        F  0.34631918  0.45752050  0.06404639    -0.13400
C597        C  0.28778398  0.32576963  0.11660670     0.16300
C598        C  0.27014886  0.30514037  0.14667844     0.25800
C599        C  0.29187601  0.28852935  0.17784682    -0.40500
C600        C  0.33198140  0.29036395  0.17616771     0.32700
C601        C  0.34962208  0.31132548  0.14623062     0.14400
F602        F  0.26583581  0.34230118  0.08768881    -0.12900
F603        F  0.35425018  0.27211459  0.20352777    -0.13400
F604        F  0.23162090  0.30267242  0.14567457    -0.15700
F605        F  0.38822482  0.31484177  0.14720103    -0.14200
F606        F  0.30562916  0.40800902  0.10799864    -0.14200
F607        F  0.42892310  0.35462282  0.02179535    -0.15700
O608        O  0.45253628  0.42825153  0.53456001    -0.78400
O609        O  0.52901580  0.44092250  0.95724904    -0.78400
O610        O  0.43910273  0.45515421  0.94554599    -0.78400
O611        O  0.56751967  0.48379624  0.55576621    -0.78400
O612        O  0.48073633  0.46627283  0.89752272    -0.78500
O613        O  0.52752543  0.43545724  0.55342123    -0.78400
O614        O  0.57324524  0.48323024  0.97539868    -0.78400
O615        O  0.40759126  0.46834641  0.51874192    -0.78400
C616        C  0.41751376  0.43535198  0.53004381     1.11300
C617        C  0.56385838  0.45070423  0.95984526     1.11200
C618        C  0.45051915  0.45044130  0.90890507     1.11300
C619        C  0.55955689  0.44921842  0.56292241     1.11200
O620        O  0.51278703  0.50624931  0.59765933    -0.78400
O621        O  0.45728927  0.53074202  0.93651350    -0.78500
O622        O  0.44016147  0.54323204  0.52622089    -0.78400
O623        O  0.52955073  0.55644946  0.97479800    -0.78400
O624        O  0.53175008  0.51551832  0.92560561    -0.78500
O625        O  0.43891715  0.50246119  0.57598850    -0.78400
O626        O  0.52181335  0.55226116  0.55471343    -0.78400
O627        O  0.39951120  0.51983576  0.96010863    -0.78400
Co628      Co  0.48339622  0.46813727  0.56222357     1.51500
Co629      Co  0.49200397  0.48304350  0.95012570     1.51700
Co630      Co  0.44279242  0.50092722  0.98707064     1.51600
Co631      Co  0.54510948  0.51846936  0.51460168     1.51500
O632        O  0.49488909  0.49167399  0.50891962    -1.40300
C633        C  0.52070676  0.54106623  0.59045302     1.11200
C634        C  0.42119620  0.53890179  0.93793849     1.11300
C635        C  0.43271225  0.53583657  0.56232757     1.11200
C636        C  0.53796628  0.54882539  0.93906880     1.11200
O637        O  0.53012459  0.98508366  0.59885620    -0.78400
O638        O  0.56139865  0.04640940  0.94571193    -0.78400
O639        O  0.51792832  0.92840879  0.96704007    -0.78400
O640        O  0.52610326  0.09163968  0.53765544    -0.78400
O641        O  0.55838511  0.97267602  0.95552731    -0.78500
O642        O  0.55828114  0.03831395  0.54801119    -0.78400
O643        O  0.52367114  0.09592280  0.95423152    -0.78400
O644        O  0.54151819  0.95495590  0.54152747    -0.78400
C645        C  0.54924379  0.96010490  0.57940715     1.11300
C646        C  0.55550224  0.08165839  0.94315090     1.11200
C647        C  0.55014801  0.93791020  0.95372048     1.11300
C648        C  0.55583143  0.07447790  0.55148951     1.11200
O649        O  0.48381790  0.04860839  0.58314761    -0.78400
O650        O  0.48054938  0.97091934  0.91853822    -0.78500
O651        O  0.47164102  0.92033494  0.53305920    -0.78400
O652        O  0.44649217  0.06442843  0.95456568    -0.78400
O653        O  0.48577067  0.04747862  0.90641201    -0.78500
O654        O  0.46020714  0.97728686  0.56018041    -0.78400
O655        O  0.44643195  0.06239410  0.53327378    -0.78400
O656        O  0.44510255  0.96605477  0.97250425    -0.78400
Co657      Co  0.51105949  0.00739291  0.55035881     1.51500
Co658      Co  0.52104712  0.00969005  0.93504916     1.51700
Co659      Co  0.49155430  0.96405055  0.50720779     1.51600
Co660      Co  0.48624978  0.07511757  0.49503759     1.51500
O661        O  0.50199670  0.01887387  0.49160066    -1.40300
C662        C  0.45238625  0.06233825  0.57044603     1.11200
C663        C  0.44909408  0.96180189  0.93481803     1.11300
C664        C  0.45257564  0.94110939  0.55725811     1.11200
C665        C  0.45315700  0.05949871  0.91782661     1.11200
O666        O  0.94674656  0.54616180  0.54594928    -0.78400
O667        O  0.08698090  0.53090532  0.95809282    -0.78400
O668        O  0.02941549  0.56288317  0.55122378    -0.78400
O669        O  0.96370508  0.56552667  0.96013065    -0.78400
O670        O  0.08217361  0.52991619  0.54093490    -0.78500
O671        O  0.92028585  0.52379559  0.96998700    -0.78400
O672        O  0.03844856  0.57014610  0.95068566    -0.78400
O673        O  0.97758358  0.53318644  0.60239291    -0.78400
C674        C  0.95249538  0.55280105  0.58399929     1.11300
C675        C  0.07351014  0.56332839  0.94754300     1.11200
C676        C  0.06528312  0.55985187  0.55473388     1.11300
C677        C  0.92936805  0.55616077  0.95655388     1.11200
O678        O  0.95882606  0.45168613  0.97365794    -0.78400
O679        O  0.05266873  0.45047240  0.53362503    -0.78500
O680        O  0.96944731  0.46487930  0.56146731    -0.78400
O681        O  0.04020047  0.49564062  0.90842590    -0.78400
O682        O  0.05483591  0.45400627  0.95482644    -0.78500
O683        O  0.91231157  0.47646004  0.53545965    -0.78400
O684        O  0.96409532  0.48852826  0.92065993    -0.78400
O685        O  0.03996405  0.48714224  0.58461942    -0.78400
Co686      Co  0.95586974  0.49720522  0.50974560     1.51500
Co687      Co  0.06581817  0.49182491  0.49700671     1.51700
Co688      Co  0.99906130  0.51572404  0.55294382     1.51600
Co689      Co  0.00178693  0.52953699  0.93844123     1.51500
O690        O  0.01029789  0.50833899  0.49409482    -1.40300
C691        C  0.95603434  0.45622825  0.93593196     1.11200
C692        C  0.05275205  0.45547944  0.57101118     1.11300
C693        C  0.93341373  0.45762578  0.55936758     1.11200
C694        C  0.05225240  0.46254778  0.91838913     1.11200
C695        C  0.25371010  0.25740211  0.78206976     0.47200
H696        H  0.25886586  0.26562831  0.81338135    -0.01800
C697        C  0.23964482  0.24244151  0.70664332     0.47200
H698        H  0.23296193  0.23531115  0.67479895    -0.01800
C699        C  0.28016939  0.27855090  0.75246385    -0.15500
C700        C  0.25845191  0.21416205  0.77158180    -0.15300
C701        C  0.21306639  0.26885045  0.76903103    -0.15700
C702        C  0.27232286  0.27081987  0.71250441    -0.15600
C703        C  0.25390905  0.20707775  0.73059428    -0.15200
C704        C  0.20575846  0.26211564  0.72880967    -0.15500
C705        C  0.75217303  0.25769362  0.71498769     0.47200
H706        H  0.74804771  0.25391469  0.68219275    -0.01800
C707        C  0.76229893  0.26419821  0.79180701     0.47200
H708        H  0.76814753  0.26680024  0.82450753    -0.01800
C709        C  0.72755002  0.28934384  0.73475359    -0.15500
C710        C  0.74096845  0.22133237  0.73709507    -0.15300
C711        C  0.79324647  0.26914058  0.72635759    -0.15700
C712        C  0.73252028  0.29286549  0.77574185    -0.15600
C713        C  0.74562653  0.22476617  0.77849984    -0.15200
C714        C  0.79857515  0.27232912  0.76745732    -0.15500
C715        C  0.25288367  0.75295050  0.70934356     0.47200
H716        H  0.24708503  0.74919740  0.67671943    -0.01800
C717        C  0.26393408  0.75982377  0.78618500     0.47200
H718        H  0.26916898  0.76346876  0.81897382    -0.01800
C719        C  0.28539575  0.72758140  0.72510529    -0.15500
C720        C  0.26548635  0.79387727  0.72217699    -0.15300
C721        C  0.21813303  0.74083889  0.73415277    -0.15700
C722        C  0.29109319  0.73101447  0.76580109    -0.15600
C723        C  0.27064775  0.79733408  0.76351154    -0.15200
C724        C  0.22377515  0.74419619  0.77530217    -0.15500
C725        C  0.73329333  0.74304404  0.79205129     0.47200
H726        H  0.73421395  0.74465725  0.82531679    -0.01800
C727        C  0.72974367  0.73735621  0.71422728     0.47200
H728        H  0.72810230  0.73514110  0.68118051    -0.01800
C729        C  0.70316472  0.71517577  0.77684055    -0.15500
C730        C  0.72184476  0.78110559  0.77161046    -0.15300
C731        C  0.77039242  0.72715866  0.77333093    -0.15700
C732        C  0.70086267  0.71184524  0.73601581    -0.15600
C733        C  0.72082321  0.77830757  0.72994359    -0.15200
C734        C  0.76917890  0.72561024  0.73174791    -0.15500
C735        C  0.08659550  0.64473687  0.62518790     0.14400
C736        C  0.12592334  0.64039136  0.63257616     0.01400
C737        C  0.14587824  0.61125081  0.61184120     0.16300
C738        C  0.12665460  0.58615791  0.58517564     0.25800
C739        C  0.08682790  0.58943857  0.57882775    -0.40600
C740        C  0.06726241  0.61976412  0.59861682     0.32800
C741        C  0.14618414  0.66658037  0.66146068     0.01400
F742        F  0.18418355  0.60722093  0.61725171    -0.12900
F743        F  0.02909909  0.62497169  0.59316315    -0.13400
C744        C  0.16529771  0.65208612  0.69544072     0.16300
C745        C  0.18644045  0.67648240  0.72112491     0.25800
C746        C  0.18894706  0.71602756  0.71329393    -0.40500
C747        C  0.16870607  0.73053436  0.68005096     0.32700
C748        C  0.14741604  0.70616482  0.65454411     0.14400
F749        F  0.16445446  0.61401179  0.70308202    -0.12900
F750        F  0.17095730  0.76827924  0.67128467    -0.13400
F751        F  0.20704379  0.66070510  0.75146600    -0.15700
F752        F  0.12957236  0.72096767  0.62179683    -0.14200
F753        F  0.06656310  0.67261083  0.64472695    -0.14200
F754        F  0.14714302  0.55842930  0.56596089    -0.15700
C755        C  0.14569320  0.60761557  0.87808769     0.14400
C756        C  0.13503530  0.64661409  0.87937057     0.01400
C757        C  0.10546379  0.65826158  0.90502125     0.16300
C758        C  0.08669391  0.63144577  0.92859341     0.25800
C759        C  0.09720465  0.59229592  0.92718907    -0.40600
C760        C  0.12714061  0.58080008  0.90183826     0.32800
C761        C  0.15631513  0.67506944  0.85544984     0.01400
F762        F  0.09507893  0.69574308  0.90768105    -0.12900
F763        F  0.13719447  0.54328096  0.89841018    -0.13400
C764        C  0.13810768  0.69792285  0.82636940     0.16300
C765        C  0.15949521  0.72253336  0.80232358     0.25800
C766        C  0.19974654  0.72391442  0.80590664    -0.40500
C767        C  0.21717775  0.70263154  0.83716160     0.32700
C768        C  0.19576096  0.67878632  0.86137303     0.14400
F769        F  0.09981223  0.69536336  0.82016462    -0.12900
F770        F  0.25529772  0.70304852  0.84396926    -0.13400
F771        F  0.14081078  0.74449741  0.77505277    -0.15700
F772        F  0.21391575  0.65860113  0.89055866    -0.14200
F773        F  0.17353428  0.59528763  0.85287490    -0.14200
F774        F  0.05808627  0.64384431  0.95282634    -0.15700
C775        C  0.10988955  0.41684380  0.83426066     0.14400
C776        C  0.11054118  0.37827791  0.84628815     0.01400
C777        C  0.08702532  0.36731766  0.87785252     0.16300
C778        C  0.06522317  0.39454665  0.89869404     0.25800
C779        C  0.06675663  0.43367117  0.88891036    -0.40600
C780        C  0.08796971  0.44434804  0.85530646     0.32800
C781        C  0.13699890  0.34958022  0.82783932     0.01400
F782        F  0.08703892  0.33047371  0.89029092    -0.12900
F783        F  0.08960246  0.48163654  0.84456947    -0.13400
C784        C  0.17676244  0.35449185  0.83084302     0.16300
C785        C  0.20180251  0.32687890  0.81472334     0.25800
C786        C  0.18753234  0.29386091  0.79463595    -0.40500
C787        C  0.14771367  0.28814822  0.79366761     0.32700
C788        C  0.12277138  0.31581931  0.80969803     0.14400
F789        F  0.19141531  0.38621359  0.84936619    -0.12900
F790        F  0.13286897  0.25620689  0.77581025    -0.13400
F791        F  0.23981305  0.33404215  0.81638794    -0.15700
F792        F  0.08453025  0.31011215  0.80653861    -0.14200
F793        F  0.13134663  0.42803432  0.80291531    -0.14200
F794        F  0.04393970  0.38280784  0.92998773    -0.15700
C795        C  0.10456275  0.36404827  0.60188135     0.14400
C796        C  0.10203000  0.36513579  0.64385142     0.01400
C797        C  0.08128333  0.39531225  0.66227045     0.16300
C798        C  0.06453647  0.42451488  0.63903251     0.25800
C799        C  0.06832531  0.42413431  0.59688219    -0.40600
C800        C  0.08800078  0.39289397  0.57873161     0.32800
C801        C  0.12574544  0.33796660  0.66787722     0.01400
F802        F  0.07786788  0.39683478  0.70287636    -0.12900
F803        F  0.09279042  0.39069250  0.53831762    -0.13400
C804        C  0.15548252  0.35258491  0.69202026     0.16300
C805        C  0.18158666  0.32800911  0.71049246     0.25800
C806        C  0.17821766  0.28778688  0.70664632    -0.40500
C807        C  0.14846809  0.27294237  0.68242908     0.32700
C808        C  0.12247399  0.29780830  0.66308177     0.14400
F809        F  0.16054252  0.39101037  0.69609456    -0.12900
F810        F  0.14453303  0.23448142  0.67766776    -0.13400
F811        F  0.21103471  0.34387233  0.73135236    -0.15700
F812        F  0.09420635  0.28273545  0.63954466    -0.14200
F813        F  0.12526276  0.33611643  0.58321490    -0.14200
F814        F  0.04504011  0.45320925  0.65783287    -0.15700
C815        C  0.87112479  0.40620030  0.63235769     0.14400
C816        C  0.88533059  0.36838506  0.62975769     0.01400
C817        C  0.91713804  0.36060359  0.60550873     0.16300
C818        C  0.93343853  0.38990825  0.58312238     0.25800
C819        C  0.91744028  0.42697537  0.58383200    -0.40600
C820        C  0.88662420  0.43503635  0.60912407     0.32800
C821        C  0.86415707  0.33729761  0.64957761     0.01400
F822        F  0.93129686  0.32443789  0.60208726    -0.12900
F823        F  0.87193017  0.47106658  0.61182787    -0.13400
C824        C  0.82504522  0.33372890  0.64150774     0.16300
C825        C  0.80242983  0.31037393  0.66468748     0.25800
C826        C  0.81850881  0.28840732  0.69620627    -0.40500
C827        C  0.85874942  0.28801447  0.70032099     0.32700
C828        C  0.88129150  0.31299372  0.67796521     0.14400
F829        F  0.80815344  0.35449022  0.61192950    -0.12900
F830        F  0.87623838  0.26415401  0.72663268    -0.13400
F831        F  0.76452503  0.31167249  0.65677010    -0.15700
F832        F  0.91944786  0.31463416  0.68538382    -0.14200
F833        F  0.84168033  0.41504375  0.65710196    -0.14200
F834        F  0.96380161  0.38176382  0.55943242    -0.15700
C835        C  0.90341805  0.36607516  0.90043159     0.14400
C836        C  0.90362981  0.36979843  0.85832933     0.01400
C837        C  0.92436908  0.40013164  0.84202705     0.16300
C838        C  0.94229100  0.42743368  0.86712463     0.25800
C839        C  0.94052639  0.42484436  0.90936726    -0.40600
C840        C  0.92188572  0.39300341  0.92561326     0.32800
C841        C  0.87974863  0.34411156  0.83184915     0.01400
F842        F  0.92689283  0.40370420  0.80156933    -0.12900
F843        F  0.91986731  0.38866037  0.96600696    -0.13400
C844        C  0.85342331  0.35999670  0.80429477     0.16300
C845        C  0.82869564  0.33646882  0.78170638     0.25800
C846        C  0.82877606  0.29657014  0.78696884    -0.40500
C847        C  0.85524628  0.28050913  0.81395366     0.32700
C848        C  0.88107429  0.30392025  0.83554617     0.14400
F849        F  0.85000834  0.39857173  0.80085363    -0.12900
F850        F  0.85590267  0.24208197  0.81948475    -0.13400
F851        F  0.80301408  0.35298496  0.75640931    -0.15700
F852        F  0.90720964  0.28730073  0.86028569    -0.14200
F853        F  0.88349670  0.33748768  0.91749429    -0.14200
F854        F  0.96091928  0.45676213  0.84980589    -0.15700
C855        C  0.84400542  0.59270101  0.89454648     0.14400
C856        C  0.85750600  0.62859284  0.88197509     0.01400
C857        C  0.89349955  0.64077357  0.89606858     0.16300
C858        C  0.91535122  0.61817835  0.92198174     0.25800
C859        C  0.90266841  0.58171207  0.93371647    -0.40600
C860        C  0.86647461  0.56937644  0.91986703     0.32800
C861        C  0.83496916  0.65348570  0.85387850     0.01400
F862        F  0.90848386  0.67421241  0.88345260    -0.12900
F863        F  0.85320090  0.53438454  0.92983559    -0.13400
C864        C  0.82942842  0.69275354  0.86285408     0.16300
C865        C  0.81067961  0.71683686  0.83551929     0.25800
C866        C  0.79580077  0.70228689  0.79893986    -0.40500
C867        C  0.80053500  0.66272884  0.79036667     0.32700
C868        C  0.82045768  0.63888696  0.81708851     0.14400
F869        F  0.84147840  0.70779463  0.89869310    -0.12900
F870        F  0.78463066  0.64647643  0.75689220    -0.13400
F871        F  0.80669215  0.75455993  0.84510811    -0.15700
F872        F  0.82575344  0.60146875  0.80670156    -0.14200
F873        F  0.80903920  0.58013897  0.88238066    -0.14200
F874        F  0.94969932  0.63199766  0.93468789    -0.15700
C875        C  0.88928833  0.64015476  0.60281452     0.14400
C876        C  0.88606025  0.64042645  0.64487525     0.01400
C877        C  0.90699107  0.61345555  0.66714713     0.16300
C878        C  0.92938700  0.58557551  0.64756624     0.25800
C879        C  0.93120189  0.58407073  0.60519491    -0.40600
C880        C  0.91154098  0.61235238  0.58316168     0.32800
C881        C  0.85720837  0.66545453  0.66479185     0.01400
F882        F  0.90401100  0.61272671  0.70778115    -0.12900
F883        F  0.91342985  0.61303225  0.54244265    -0.13400
C884        C  0.81859970  0.66128777  0.65412716     0.16300
C885        C  0.79044573  0.68261920  0.67376796     0.25800
C886        C  0.79988953  0.70768907  0.70614264    -0.40500
C887        C  0.83896074  0.71338818  0.71536513     0.32700
C888        C  0.86733031  0.69237777  0.69494233     0.14400
F889        F  0.80783586  0.63511332  0.62555189    -0.12900
F890        F  0.84970661  0.73939014  0.74407551    -0.13400
F891        F  0.75389716  0.67707103  0.66156346    -0.15700
F892        F  0.90464197  0.69829486  0.70457117    -0.14200
F893        F  0.86999747  0.66640161  0.58061905    -0.14200
F894        F  0.94780170  0.55901032  0.67011780    -0.15700
C895        C  0.67927013  0.19789012  0.86346168     0.14400
C896        C  0.67255881  0.15922387  0.85507498     0.01400
C897        C  0.69440864  0.14035205  0.82544079     0.16300
C898        C  0.72033999  0.16096771  0.80235298     0.25800
C899        C  0.72420822  0.20090581  0.80795829    -0.40600
C900        C  0.70472032  0.21841381  0.84064558     0.32800
C901        C  0.64251704  0.13944897  0.87764978     0.01400
F902        F  0.68976745  0.10231647  0.81797273    -0.12900
F903        F  0.70872882  0.25574312  0.85084731    -0.13400
C904        C  0.60463045  0.15332376  0.87692790     0.16300
C905        C  0.57640996  0.13600409  0.89984022     0.25800
C906        C  0.58562740  0.10443538  0.92384990    -0.40500
C907        C  0.62384423  0.09111803  0.92492320     0.32700
C908        C  0.65189834  0.10845708  0.90208528     0.14400
F909        F  0.59484859  0.18324180  0.85326631    -0.12900
F910        F  0.63414266  0.06094825  0.94799873    -0.13400
F911        F  0.53986068  0.14893074  0.89694959    -0.15700
F912        F  0.68843439  0.09534157  0.90436156    -0.14200
F913        F  0.66061012  0.21619174  0.89384623    -0.14200
F914        F  0.74141712  0.14193297  0.77440441    -0.15700
C915        C  0.65130267  0.17407308  0.69208079     0.14400
C916        C  0.66581422  0.15510012  0.65771082     0.01400
C917        C  0.70569288  0.15491613  0.65238022     0.16300
C918        C  0.73016556  0.17402156  0.67998928     0.25800
C919        C  0.71567052  0.19349110  0.71404796    -0.40600
C920        C  0.67581585  0.19298044  0.71985189     0.32800
C921        C  0.63942283  0.13530989  0.62783416     0.01400
F922        F  0.72090209  0.13769644  0.61932952    -0.12900
F923        F  0.66018750  0.21331699  0.75067962    -0.13400
C924        C  0.61023974  0.15551416  0.60747237     0.16300
C925        C  0.58409564  0.13631818  0.58154317     0.25800
C926        C  0.58624848  0.09616027  0.57522914    -0.40500
C927        C  0.61659982  0.07638731  0.59454872     0.32700
C928        C  0.64266159  0.09566848  0.62025597     0.14400
F929        F  0.60705777  0.19406436  0.61262694    -0.12900
F930        F  0.62067015  0.03789813  0.58970280    -0.13400
F931        F  0.55629907  0.15718299  0.56318158    -0.15700
F932        F  0.67038892  0.07510894  0.63910549    -0.14200
F933        F  0.61310022  0.17491804  0.69842959    -0.14200
F934        F  0.76817760  0.17490678  0.67254348    -0.15700
C935        C  0.39225297  0.08757917  0.66273342     0.14400
C936        C  0.36196550  0.10866797  0.64520416     0.01400
C937        C  0.36184609  0.11399494  0.60356420     0.16300
C938        C  0.39122739  0.09918116  0.57991183     0.25800
C939        C  0.42190737  0.07823636  0.59713061    -0.40600
C940        C  0.42201711  0.07262539  0.63895106     0.32800
C941        C  0.33333544  0.12977717  0.67012184     0.01400
F942        F  0.33414769  0.13549110  0.58580011    -0.12900
F943        F  0.45086844  0.05287405  0.65687948    -0.13400
C944        C  0.34616372  0.15682036  0.69869992     0.16300
C945        C  0.32048825  0.18154075  0.71772024     0.25800
C946        C  0.28085093  0.17969052  0.70959282    -0.40500
C947        C  0.26772076  0.15217704  0.68141411     0.32700
C948        C  0.29369162  0.12724289  0.66201794     0.14400
F949        F  0.38406220  0.16090619  0.70671906    -0.12900
F950        F  0.22981285  0.14921526  0.67302468    -0.13400
F951        F  0.33487884  0.20796665  0.74374370    -0.15700
F952        F  0.28021300  0.10084640  0.63504577    -0.14200
F953        F  0.39317580  0.08175528  0.70297885    -0.14200
F954        F  0.38997967  0.10671995  0.53999595    -0.15700
C955        C  0.35397363  0.07773886  0.87608877     0.14400
C956        C  0.36077518  0.10757875  0.84941855     0.01400
C957        C  0.39878108  0.11709475  0.84065721     0.16300
C958        C  0.42945238  0.09867920  0.86008154     0.25800
C959        C  0.42256917  0.07089912  0.88910970    -0.40600
C960        C  0.38457203  0.05983935  0.89608150     0.32800
C961        C  0.32890011  0.13240058  0.83504576     0.01400
F962        F  0.40606349  0.14588493  0.81497172    -0.12900
F963        F  0.37700660  0.03316884  0.92408972    -0.13400
C964        C  0.32589878  0.17000625  0.85004185     0.16300
C965        C  0.29932349  0.19567785  0.83369933     0.25800
C966        C  0.27630182  0.18487410  0.80005407    -0.40500
C967        C  0.27447990  0.14506719  0.79081692     0.32700
C968        C  0.30139142  0.11936014  0.80708515     0.14400
F969        F  0.34939364  0.18217010  0.88039614    -0.12900
F970        F  0.24741347  0.13114218  0.76500715    -0.13400
F971        F  0.29720501  0.23078832  0.85133116    -0.15700
F972        F  0.30155488  0.08223071  0.79428232    -0.14200
F973        F  0.31764136  0.06797964  0.88509619    -0.14200
F974        F  0.46560715  0.11059631  0.85337851    -0.15700
C975        C  0.61220299  0.91362688  0.65991343     0.14400
C976        C  0.63864468  0.89271955  0.63676649     0.01400
C977        C  0.63681644  0.89558148  0.59465394     0.16300
C978        C  0.60846998  0.91806922  0.57604362     0.25800
C979        C  0.58105325  0.93817427  0.59917416    -0.40600
C980        C  0.58381660  0.93609886  0.64144482     0.32800
C981        C  0.66440343  0.86421095  0.65645921     0.01400
F982        F  0.66212593  0.87593287  0.57145332    -0.12900
F983        F  0.55794657  0.95438215  0.66509339    -0.13400
C984        C  0.65825341  0.82506607  0.64919952     0.16300
C985        C  0.67764844  0.79745899  0.67168053     0.25800
C986        C  0.70427223  0.80812892  0.70219770    -0.40500
C987        C  0.71226926  0.84747942  0.70764768     0.32700
C988        C  0.69228390  0.87524017  0.68523143     0.14400
F989        F  0.63130747  0.81343209  0.62198413    -0.12900
F990        F  0.73884589  0.85911169  0.73522908    -0.13400
F991        F  0.66757739  0.76043395  0.66535507    -0.15700
F992        F  0.69970741  0.91293105  0.69201469    -0.14200
F993        F  0.61249896  0.91050707  0.70053714    -0.14200
F994        F  0.60779231  0.91978541  0.53529742    -0.15700
C995        C  0.69086654  0.83923657  0.86306137     0.14400
C996        C  0.65250716  0.84799620  0.85363876     0.01400
C997        C  0.63862296  0.83900817  0.81486769     0.16300
C998        C  0.66164558  0.81971623  0.78695067     0.25800
C999        C  0.69995355  0.80997644  0.79647426    -0.40600
C1000       C  0.71441987  0.82115318  0.83460079     0.32800
C1001       C  0.62739883  0.86795302  0.88339848     0.01400
F1002       F  0.60213402  0.84794284  0.80418351    -0.12900
F1003       F  0.75114672  0.81307052  0.84502979    -0.13400
C1004       C  0.63936005  0.90255309  0.90135472     0.16300
C1005       C  0.61505601  0.92350238  0.92644732     0.25800
C1006       C  0.57744301  0.91104502  0.93360950    -0.40500
C1007       C  0.56586672  0.87551099  0.91706939     0.32700
C1008       C  0.59072841  0.85403788  0.89239659     0.14400
F1009       F  0.67400480  0.91741473  0.89278113    -0.12900
F1010       F  0.52999591  0.86242143  0.92305793    -0.13400
F1011       F  0.62817081  0.95703418  0.94250601    -0.15700
F1012       F  0.57869094  0.81998170  0.87666201    -0.14200
F1013       F  0.70521169  0.84680990  0.90045396    -0.14200
F1014       F  0.64461943  0.80720297  0.75249368    -0.15700
C1015       C  0.30105694  0.87490305  0.83901383     0.14400
C1016       C  0.34085222  0.87646910  0.83325534     0.01400
C1017       C  0.35675363  0.85362228  0.80227490     0.16300
C1018       C  0.33362864  0.82979275  0.77799861     0.25800
C1019       C  0.29412756  0.82739910  0.78463181    -0.40600
C1020       C  0.27811028  0.85015462  0.81539106     0.32800
C1021       C  0.36603649  0.90101928  0.85980640     0.01400
F1022       F  0.39508816  0.85291583  0.79667305    -0.12900
F1023       F  0.24012061  0.84822538  0.82263740    -0.13400
C1024       C  0.36516056  0.89832286  0.90204404     0.16300
C1025       C  0.39085266  0.91929200  0.92660558     0.25800
C1026       C  0.41849397  0.94315401  0.90952713    -0.40500
C1027       C  0.41836129  0.94679056  0.86735121     0.32700
C1028       C  0.39244107  0.92619499  0.84294379     0.14400
F1029       F  0.34062679  0.87392946  0.91960387    -0.12900
F1030       F  0.44357779  0.97022070  0.84943503    -0.13400
F1031       F  0.38974951  0.91469244  0.96702093    -0.15700
F1032       F  0.39329386  0.93082558  0.80253134    -0.14200
F1033       F  0.28431618  0.89739657  0.86750176    -0.14200
F1034       F  0.35025656  0.80744948  0.74934482    -0.15700
C1035       C  0.39765492  0.87064436  0.61911495     0.14400
C1036       C  0.36184286  0.88878382  0.62392559     0.01400
C1037       C  0.35661184  0.92563897  0.60790482     0.16300
C1038       C  0.38635002  0.94339249  0.58708698     0.25800
C1039       C  0.42132353  0.92408006  0.58078012    -0.40600
C1040       C  0.42650117  0.88759037  0.59705350     0.32800
C1041       C  0.33049810  0.86770220  0.64429284     0.01400
F1042       F  0.32240444  0.94386653  0.61099151    -0.12900
F1043       F  0.46004238  0.86844006  0.59227498    -0.13400
C1044       C  0.30958583  0.88366216  0.67646942     0.16300
C1045       C  0.28516560  0.86062415  0.69909120     0.25800
C1046       C  0.28345139  0.82055256  0.69220054    -0.40500
C1047       C  0.30199975  0.80580359  0.65752255     0.32700
C1048       C  0.32375109  0.82931951  0.63340376     0.14400
F1049       F  0.31406901  0.92100167  0.68739977    -0.12900
F1050       F  0.30165804  0.76815481  0.64724484    -0.13400
F1051       F  0.26394669  0.87751099  0.72833438    -0.15700
F1052       F  0.34005873  0.81373210  0.60003310    -0.14200
F1053       F  0.40493761  0.83619367  0.63604524    -0.14200
F1054       F  0.38035286  0.97869651  0.57161807    -0.15700
C1055       C  0.36238415  0.69538706  0.84287224     0.14400
C1056       C  0.35612793  0.65585653  0.83997035     0.01400
C1057       C  0.33056280  0.64091159  0.81120083     0.16300
C1058       C  0.31049699  0.66537392  0.78604657     0.25800
C1059       C  0.31599057  0.70520620  0.78918098    -0.40600
C1060       C  0.34211733  0.72006930  0.81772877     0.32800
C1061       C  0.37439309  0.62976555  0.86818576     0.01400
F1062       F  0.32418869  0.60259886  0.80846008    -0.12900
F1063       F  0.34736990  0.75836211  0.82190585    -0.13400
C1064       C  0.35244297  0.61307864  0.89798868     0.16300
C1065       C  0.36787000  0.58404176  0.92135198     0.25800
C1066       C  0.40561448  0.57124871  0.91501998    -0.40500
C1067       C  0.42799392  0.58938427  0.88606301     0.32700
C1068       C  0.41233975  0.61842329  0.86273730     0.14400
F1069       F  0.31564401  0.62425646  0.90358705    -0.12900
F1070       F  0.46452957  0.57824197  0.87916164    -0.13400
F1071       F  0.34554329  0.56819797  0.94963245    -0.15700
F1072       F  0.43358059  0.63426355  0.83355612    -0.14200
F1073       F  0.38698073  0.70999258  0.87096888    -0.14200
F1074       F  0.28380744  0.65022470  0.76063361    -0.15700
C1075       C  0.39821855  0.63255961  0.59952360     0.14400
C1076       C  0.37645336  0.62222056  0.63259283     0.01400
C1077       C  0.37533140  0.58385943  0.64433165     0.16300
C1078       C  0.39455007  0.55572017  0.62220492     0.25800
C1079       C  0.41512176  0.56568760  0.58789012    -0.40600
C1080       C  0.41757370  0.60453373  0.57735818     0.32800
C1081       C  0.35330742  0.65101227  0.65385822     0.01400
F1082       F  0.35501894  0.57365042  0.67691891    -0.12900
F1083       F  0.43839110  0.61545403  0.54540208    -0.13400
C1084       C  0.31342108  0.64779113  0.65326345     0.16300
C1085       C  0.29119597  0.67377563  0.67501658     0.25800
C1086       C  0.30863238  0.70251302  0.69870509    -0.40500
C1087       C  0.34855360  0.70653870  0.69812213     0.32700
C1088       C  0.37076844  0.68111341  0.67545799     0.14400
F1089       F  0.29607659  0.61919152  0.63183538    -0.12900
F1090       F  0.36596817  0.73504698  0.71950431    -0.13400
F1091       F  0.25282212  0.66966363  0.67424235    -0.15700
F1092       F  0.40931194  0.68513574  0.67547170    -0.14200
F1093       F  0.39953884  0.66960235  0.58784038    -0.14200
F1094       F  0.39175139  0.51867693  0.63357445    -0.15700
C1095       C  0.57799205  0.59949658  0.85011196     0.14400
C1096       C  0.60041526  0.62750129  0.86953405     0.01400
C1097       C  0.60035132  0.63128001  0.91145679     0.16300
C1098       C  0.57896994  0.60633706  0.93409114     0.25800
C1099       C  0.55737356  0.57725959  0.91488499    -0.40600
C1100       C  0.55676816  0.57423307  0.87267897     0.32800
C1101       C  0.62684966  0.65034200  0.84651111     0.01400
F1102       F  0.62271041  0.65777598  0.93050223    -0.12900
F1103       F  0.53623167  0.54650115  0.85331965    -0.13400
C1104       C  0.62241120  0.69016813  0.84485890     0.16300
C1105       C  0.64835120  0.71169619  0.82355482     0.25800
C1106       C  0.67883177  0.69354563  0.80385177    -0.40500
C1107       C  0.68392390  0.65385678  0.80677236     0.32700
C1108       C  0.65786191  0.63227353  0.82773662     0.14400
F1109       F  0.59252374  0.70794892  0.86308877    -0.12900
F1110       F  0.71392200  0.63600205  0.78903853    -0.13400
F1111       F  0.64278071  0.74990660  0.82102673    -0.15700
F1112       F  0.66297970  0.59378395  0.83007809    -0.14200
F1113       F  0.57744855  0.59617211  0.80937258    -0.14200
F1114       F  0.58142817  0.60916948  0.97481529    -0.15700
C1115       C  0.64945906  0.62766431  0.68782886     0.14400
C1116       C  0.61134504  0.64063540  0.68825215     0.01400
C1117       C  0.60313000  0.67736519  0.70379449     0.16300
C1118       C  0.63263678  0.70112629  0.71742052     0.25800
C1119       C  0.67079265  0.68847583  0.71614264    -0.40600
C1120       C  0.67879073  0.65105953  0.70263381     0.32800
C1121       C  0.58085630  0.61689935  0.66962553     0.01400
F1122       F  0.56647422  0.69000259  0.70625522    -0.12900
F1123       F  0.71451315  0.63622331  0.70599451    -0.13400
C1124       C  0.57604158  0.57851133  0.68059244     0.16300
C1125       C  0.55320421  0.55396947  0.65695146     0.25800
C1126       C  0.53448981  0.56778258  0.62234688    -0.40500
C1127       C  0.53596135  0.60727441  0.61435104     0.32700
C1128       C  0.55932027  0.63144360  0.63741494     0.14400
F1129       F  0.59524964  0.56429970  0.71282875    -0.12900
F1130       F  0.51718621  0.62206400  0.58212809    -0.13400
F1131       F  0.55233220  0.51618845  0.66589003    -0.15700
F1132       F  0.56349988  0.66831857  0.62593512    -0.14200
F1133       F  0.65838940  0.59242857  0.67267428    -0.14200
F1134       F  0.62383973  0.73611219  0.73312282    -0.15700
C1135       C  0.64588305  0.42320284  0.89209285     0.14400
C1136       C  0.64182736  0.38324752  0.88861624     0.01400
C1137       C  0.61431631  0.36510079  0.91210244     0.16300
C1138       C  0.58995576  0.38675614  0.93691117     0.25800
C1139       C  0.59305127  0.42691320  0.93911398    -0.43400
C1140       C  0.62192145  0.44478446  0.91721374     0.32800
C1141       C  0.66510459  0.36086783  0.85921624     0.01400
F1142       F  0.61082250  0.32638357  0.91067737    -0.12900
F1143       F  0.62527305  0.48352974  0.91784971    -0.13400
C1144       C  0.70520621  0.36134678  0.86143251     0.16300
C1145       C  0.72699094  0.34005539  0.83384981     0.25800
C1146       C  0.70922616  0.31817622  0.80301965    -0.40500
C1147       C  0.66896265  0.31805625  0.80065063     0.32700
C1148       C  0.64722420  0.33928815  0.82832903     0.14400
F1149       F  0.72333934  0.38178562  0.89097758    -0.12900
F1150       F  0.65046755  0.29609660  0.77263474    -0.13400
F1151       F  0.76554313  0.34074093  0.83758498    -0.15700
F1152       F  0.60854636  0.33891080  0.82486022    -0.14200
F1153       F  0.67172024  0.44165336  0.86943501    -0.14200
F1154       F  0.56310845  0.36853231  0.95847955    -0.15700
C1155       C  0.68156947  0.37770248  0.69196494     0.14400
C1156       C  0.66018232  0.36144862  0.66032156     0.01400
C1157       C  0.66130270  0.32196865  0.65268767     0.16300
C1158       C  0.68180553  0.29841348  0.67807721     0.25800
C1159       C  0.70319883  0.31432049  0.71021869    -0.40600
C1160       C  0.70393952  0.35434122  0.71613095     0.32800
C1161       C  0.63479949  0.38500428  0.63633243     0.01400
F1162       F  0.64217129  0.30625800  0.62070329    -0.12900
F1163       F  0.72698021  0.37102338  0.74435212    -0.13400
C1164       C  0.64918106  0.41525620  0.61410570     0.16300
C1165       C  0.62469246  0.43617240  0.58963597     0.25800
C1166       C  0.58581898  0.42647690  0.58697262    -0.40500
C1167       C  0.57150138  0.39657015  0.61014633     0.32700
C1168       C  0.59589544  0.37614033  0.63481866     0.14400
F1169       F  0.68692006  0.42397873  0.61556272    -0.12900
F1170       F  0.53373466  0.38785285  0.61016210    -0.13400
F1171       F  0.63902319  0.46558629  0.56842946    -0.15700
F1172       F  0.58154791  0.34779886  0.65760298    -0.14200
F1173       F  0.68038486  0.41601453  0.69968659    -0.14200
F1174       F  0.68060037  0.26015369  0.67085043    -0.15700
C1175       C  0.36655532  0.40571848  0.85528804     0.14400
C1176       C  0.38463742  0.38496459  0.82448353     0.01400
C1177       C  0.42443401  0.38605781  0.82094719     0.16300
C1178       C  0.44617140  0.40729834  0.84862250     0.25800
C1179       C  0.42818016  0.42717346  0.88033825    -0.40600
C1180       C  0.38818212  0.42663710  0.88317683     0.32800
C1181       C  0.36219304  0.35776967  0.80035567     0.01400
F1182       F  0.44213584  0.36576291  0.79133248    -0.12900
F1183       F  0.36995824  0.44670891  0.91261356    -0.13400
C1184       C  0.33424079  0.37054493  0.77317973     0.16300
C1185       C  0.30843741  0.34454001  0.75602060     0.25800
C1186       C  0.30977618  0.30573980  0.76685761    -0.40500
C1187       C  0.33947763  0.29299984  0.79213114     0.32700
C1188       C  0.36552895  0.31878925  0.80867150     0.14400
F1189       F  0.33133320  0.40826749  0.76428141    -0.12900
F1190       F  0.34400944  0.25555152  0.80044072    -0.13400
F1191       F  0.28180256  0.35755281  0.72967597    -0.15700
F1192       F  0.39294079  0.30599744  0.83449961    -0.14200
F1193       F  0.32803249  0.40434045  0.85927666    -0.14200
F1194       F  0.48477322  0.40740976  0.84521013    -0.15700
C1195       C  0.33503145  0.39423668  0.58568146     0.14400
C1196       C  0.34598403  0.35544640  0.58765928     0.01400
C1197       C  0.37659531  0.34215608  0.56426314     0.16300
C1198       C  0.39826548  0.36789342  0.54248825     0.25800
C1199       C  0.38930087  0.40723221  0.54336724    -0.40600
C1200       C  0.35622048  0.41984031  0.56323626     0.32800
C1201       C  0.32757364  0.32990250  0.61667154     0.01400
F1202       F  0.38638138  0.30445840  0.56377652    -0.12900
F1203       F  0.34633204  0.45751905  0.56404651    -0.13400
C1204       C  0.28778330  0.32577759  0.61661435     0.16300
C1205       C  0.27014562  0.30514806  0.64668483     0.25800
C1206       C  0.29187061  0.28853116  0.67785134    -0.40500
C1207       C  0.33197637  0.29036395  0.67617338     0.32700
C1208       C  0.34961962  0.31132460  0.64623697     0.14400
F1209       F  0.26583678  0.34231391  0.58769818    -0.12900
F1210       F  0.35424352  0.27211330  0.70353377    -0.13400
F1211       F  0.23161733  0.30268504  0.64568163    -0.15700
F1212       F  0.38822280  0.31483637  0.64720767    -0.14200
F1213       F  0.30563874  0.40801391  0.60800167    -0.14200
F1214       F  0.42892993  0.35461339  0.52180328    -0.15700
loop_ 
_geom_bond_atom_site_label_1 
_geom_bond_atom_site_label_2 
_geom_bond_distance 
_geom_bond_site_symmetry_2 
_ccdc_geom_bond_type 
O1            C9   1.257       .  A
O1          Co21   1.975       .  S
O2           C10   1.270       .  A
O2          Co22   1.970       .  S
O3           C11   1.295       .  A
O3          Co23   2.098       .  S
O4           C12   1.268       .  A
O4          Co24   1.994       .  S
O5           C11   1.262       .  A
O5          Co22   1.874       .  S
O6           C12   1.257       .  A
O6          Co21   1.938       .  S
O7           C10   1.283       .  A
O7         Co631   2.037       .  S
O8            C9   1.263       .  A
O8         Co630   2.004   1_554  S
C9          C592   1.474       .  S
C10         C532   1.483       .  S
C11         C572   1.462       .  S
C12         C559   1.453       .  S
O13          C26   1.276       .  A
O13         Co21   2.037       .  S
O14          C27   1.295       .  A
O14         Co22   2.108       .  S
O15          C28   1.264       .  A
O15        Co630   1.955   1_554  S
O16          C29   1.252       .  A
O16        Co631   1.960       .  S
O17          C29   1.258       .  A
O17         Co22   1.992       .  S
O18          C28   1.274       .  A
O18         Co21   2.012       .  S
O19          C26   1.259       .  A
O19         Co24   1.950       .  S
O20          C27   1.265       .  A
O20         Co23   1.874       .  S
Co21         O25   2.014       .  S
Co22        O632   1.975       .  S
Co23        O615   2.004       .  S
Co23        O622   1.955       .  S
Co23        O632   1.981       .  S
Co24        O614   2.037   1_554  S
Co24        O623   1.960   1_554  S
Co24         O25   2.002       .  S
O25        Co629   1.975   1_554  S
O25        Co630   1.982   1_554  S
C26         C519   1.479       .  S
C27         C459   1.472       .  S
C28         C472   1.471       .  S
C29         C492   1.464       .  S
O30          C38   1.270       .  A
O30         Co50   1.914   1_565  S
O31          C39   1.251       .  A
O31         Co51   1.939       .  S
O32          C40   1.266       .  A
O32        Co659   2.037       .  S
O33          C41   1.282       .  A
O33         Co53   2.054   1_554  S
O34          C40   1.249       .  A
O34         Co51   1.957   1_565  S
O35          C41   1.268       .  A
O35         Co50   1.983       .  S
O36          C39   1.275       .  A
O36        Co660   2.044       .  S
O37          C38   1.295       .  A
O37         Co52   2.102       .  S
C38         C372   1.499       .  S
C39         C299   1.484       .  S
C40         C399   1.492       .  S
C41         C319   1.516       .  S
O42          C55   1.268       .  A
O42         Co50   2.032       .  S
O43          C56   1.278       .  A
O43         Co51   2.030   1_565  S
O44          C57   1.268       .  A
O44         Co52   1.905       .  S
O45          C58   1.256       .  A
O45        Co660   1.957       .  S
O46          C58   1.275       .  A
O46         Co51   2.041       .  S
O47          C57   1.294       .  A
O47         Co50   2.105   1_565  S
O48          C55   1.252       .  A
O48         Co53   1.958   1_554  S
O49          C56   1.269       .  A
O49        Co659   1.984       .  S
Co50         O54   2.023   1_554  S
Co51        O661   2.024       .  S
Co52        O639   2.037   1_554  S
Co52        O656   1.984   1_554  S
Co52         O54   2.028   1_564  S
Co53        O643   2.044       .  S
Co53        O652   1.957       .  S
Co53         O54   2.038       .  S
O54        Co658   2.024       .  S
C55         C332   1.495       .  S
C56         C419   1.499       .  S
C57         C432   1.487       .  S
C58         C352   1.483       .  S
O59          C67   1.296       .  A
O59         Co79   2.099       .  S
O60          C68   1.277       .  A
O60        Co687   2.045       .  S
O61          C69   1.264       .  A
O61         Co81   1.967   1_455  S
O62          C70   1.252       .  A
O62         Co82   1.963   1_655  S
O63          C69   1.279       .  A
O63         Co80   2.038   1_554  S
O64          C70   1.266       .  A
O64        Co686   2.037       .  S
O65          C68   1.255       .  A
O65         Co82   1.952       .  S
O66          C67   1.268       .  A
O66         Co81   1.907       .  S
C67         C272   1.491       .  S
C68         C152   1.489       .  S
C69         C132   1.498       .  S
C70         C252   1.497       .  S
O71          C84   1.270       .  A
O71        Co686   1.978       .  S
O72          C85   1.253       .  A
O72         Co80   1.966   1_554  S
O73          C86   1.289       .  A
O73         Co81   2.086       .  S
O74          C87   1.275       .  A
O74         Co82   2.045       .  S
O75          C87   1.255       .  A
O75        Co687   1.947       .  S
O76          C86   1.268       .  A
O76         Co79   1.911       .  S
O77          C84   1.279       .  A
O77         Co82   2.028   1_655  S
O78          C85   1.269       .  A
O78         Co81   2.034   1_455  S
Co79        O671   2.037   1_554  S
Co79        O678   1.978   1_554  S
Co79         O83   2.024   1_654  S
Co80        O667   2.045       .  S
Co80        O682   1.947       .  S
Co80         O83   2.026       .  S
Co81         O83   2.014   1_654  S
Co82        O690   2.023       .  S
O83        Co689   2.023       .  S
C84         C232   1.496       .  S
C85         C192   1.500       .  S
C86         C212   1.473       .  S
C87         C172   1.486       .  S
C88          H89   1.089       .  S
C88          C94   1.535       .  S
C88          C93   1.552       .  S
C88          C92   1.559       .  S
C90          H91   1.106       .  S
C90          C96   1.557       .  S
C90          C95   1.526       .  S
C90          C97   1.556       .  S
C92          C95   1.377       .  D
C92         C579   1.479       .  S
C93          C96   1.389       .  D
C93         C359   1.531       .  S
C94          C97   1.376       .  D
C94         C179   1.508       .  S
C95         C599   1.493       .  S
C96         C339   1.509       .  S
C97         C199   1.507       .  S
C98          H99   1.104       .  S
C98         C104   1.536       .  S
C98         C103   1.534       .  S
C98         C102   1.541       .  S
C100        H101   1.107       .  S
C100        C106   1.554       .  S
C100        C105   1.538       .  S
C100        C107   1.546       .  S
C102        C105   1.376       .  D
C102        C552   1.467       .  S
C103        C106   1.388       .  D
C103        C312   1.511       .  S
C104        C107   1.380       .  D
C104        C219   1.515       .  S
C105        C539   1.501       .  S
C106        C292   1.507       .  S
C107        C239   1.493       .  S
C108        H109   1.107       .  S
C108        C114   1.544       .  S
C108        C113   1.549       .  S
C108        C112   1.531       .  S
C110        H111   1.109       .  S
C110        C116   1.543       .  S
C110        C115   1.536       .  S
C110        C117   1.548       .  S
C112        C115   1.369       .  D
C112        C479   1.478       .  S
C113        C116   1.388       .  D
C113        C439   1.521       .  S
C114        C117   1.384       .  D
C114        C139   1.499       .  S
C115        C452   1.475       .  S
C116        C412   1.497       .  S
C117        C159   1.517       .  S
C118        H119   1.107       .  S
C118        C124   1.544       .  S
C118        C123   1.551       .  S
C118        C122   1.516       .  S
C120        H121   1.102       .  S
C120        C126   1.545       .  S
C120        C125   1.547       .  S
C120        C127   1.548       .  S
C122        C125   1.363       .  D
C122        C499   1.468       .  S
C123        C126   1.388       .  D
C123        C392   1.506       .  S
C124        C127   1.384       .  D
C124        C259   1.506       .  S
C125        C512   1.478       .  S
C126        C379   1.511       .  S
C127        C279   1.507       .  S
C128        C129   1.404       .  A
C128        C133   1.402       .  A
C128        F146   1.358       .  S
C129        C134   1.491       .  S
C129        C130   1.407       .  A
C130        C131   1.404       .  A
C130        F135   1.358       .  S
C131        C132   1.412       .  A
C131        F147   1.358       .  S
C132        C133   1.415       .  A
C133        F136   1.358       .  S
C134        C137   1.406       .  A
C134        C141   1.406       .  A
C137        C138   1.403       .  A
C137        F142   1.358       .  S
C138        C139   1.413       .  A
C138        F144   1.356       .  S
C139        C140   1.406       .  A
C140        C141   1.402       .  A
C140        F143   1.357       .  S
C141        F145   1.357       .  S
C148        C149   1.410       .  A
C148        C153   1.403       .  A
C148        F166   1.358       .  S
C149        C154   1.492       .  S
C149        C150   1.404       .  A
C150        C151   1.403       .  A
C150        F155   1.358       .  S
C151        C152   1.414       .  A
C151        F167   1.358       .  S
C152        C153   1.406       .  A
C153        F156   1.358       .  S
C154        C157   1.408       .  A
C154        C161   1.399       .  A
C157        C158   1.409       .  A
C157        F162   1.357       .  S
C158        C159   1.414       .  A
C158        F164   1.357       .  S
C159        C160   1.418       .  A
C160        C161   1.397       .  A
C160        F163   1.351       .  S
C161        F165   1.359       .  S
C168        C169   1.411       .  A
C168        C173   1.408       .  A
C168        F186   1.358       .  S
C169        C174   1.491       .  S
C169        C170   1.403       .  A
C170        C171   1.396       .  A
C170        F175   1.358       .  S
C171        C172   1.411       .  A
C171        F187   1.359       .  S
C172        C173   1.407       .  A
C173        F176   1.358       .  S
C174        C177   1.406       .  A
C174        C181   1.406       .  A
C177        C178   1.404       .  A
C177        F182   1.358       .  S
C178        C179   1.413       .  A
C178        F184   1.356       .  S
C179        C180   1.410       .  A
C180        C181   1.402       .  A
C180        F183   1.357       .  S
C181        F185   1.358       .  S
C188        C189   1.400       .  A
C188        C193   1.397       .  A
C188        F206   1.358       .  S
C189        C194   1.493       .  S
C189        C190   1.412       .  A
C190        C191   1.410       .  A
C190        F195   1.358       .  S
C191        C192   1.410       .  A
C191        F207   1.357       .  S
C192        C193   1.417       .  A
C193        F196   1.358       .  S
C194        C197   1.400       .  A
C194        C201   1.413       .  A
C197        C198   1.394       .  A
C197        F202   1.358       .  S
C198        C199   1.413       .  A
C198        F204   1.352       .  S
C199        C200   1.405       .  A
C200        C201   1.411       .  A
C200        F203   1.357       .  S
C201        F205   1.357       .  S
C208        C209   1.410       .  A
C208        C213   1.396       .  A
C208        F226   1.359       .  S
C209        C214   1.486       .  S
C209        C210   1.406       .  A
C210        C211   1.404       .  A
C210        F215   1.357       .  S
C211        C212   1.407       .  A
C211        F227   1.358       .  S
C212        C213   1.401       .  A
C213        F216   1.358       .  S
C214        C217   1.398       .  A
C214        C221   1.407       .  A
C217        C218   1.390       .  A
C217        F222   1.359       .  S
C218        C219   1.418       .  A
C218        F224   1.351       .  S
C219        C220   1.414       .  A
C220        C221   1.408       .  A
C220        F223   1.357       .  S
C221        F225   1.357       .  S
C228        C229   1.409       .  A
C228        C233   1.403       .  A
C228        F246   1.358       .  S
C229        C234   1.497       .  S
C229        C230   1.408       .  A
C230        C231   1.402       .  A
C230        F235   1.358       .  S
C231        C232   1.412       .  A
C231        F247   1.358       .  S
C232        C233   1.412       .  A
C233        F236   1.358       .  S
C234        C237   1.410       .  A
C234        C241   1.411       .  A
C237        C238   1.400       .  A
C237        F242   1.358       .  S
C238        C239   1.407       .  A
C238        F244   1.357       .  S
C239        C240   1.403       .  A
C240        C241   1.405       .  A
C240        F243   1.357       .  S
C241        F245   1.357       .  S
C248        C249   1.414       .  A
C248        C253   1.411       .  A
C248        F266   1.357       .  S
C249        C254   1.501       .  S
C249        C250   1.405       .  A
C250        C251   1.396       .  A
C250        F255   1.358       .  S
C251        C252   1.414       .  A
C251        F267   1.358       .  S
C252        C253   1.410       .  A
C253        F256   1.358       .  S
C254        C257   1.411       .  A
C254        C261   1.408       .  A
C257        C258   1.403       .  A
C257        F262   1.358       .  S
C258        C259   1.406       .  A
C258        F264   1.357       .  S
C259        C260   1.415       .  A
C260        C261   1.404       .  A
C260        F263   1.356       .  S
C261        F265   1.358       .  S
C268        C269   1.405       .  A
C268        C273   1.400       .  A
C268        F286   1.358       .  S
C269        C274   1.487       .  S
C269        C270   1.405       .  A
C270        C271   1.403       .  A
C270        F275   1.358       .  S
C271        C272   1.412       .  A
C271        F287   1.358       .  S
C272        C273   1.411       .  A
C273        F276   1.358       .  S
C274        C277   1.401       .  A
C274        C281   1.406       .  A
C277        C278   1.395       .  A
C277        F282   1.359       .  S
C278        C279   1.413       .  A
C278        F284   1.352       .  S
C279        C280   1.413       .  A
C280        C281   1.407       .  A
C280        F283   1.357       .  S
C281        F285   1.357       .  S
C288        C289   1.394       .  A
C288        C293   1.388       .  A
C288        F306   1.359       .  S
C289        C294   1.481       .  S
C289        C290   1.408       .  A
C290        C291   1.406       .  A
C290        F295   1.357       .  S
C291        C292   1.411       .  A
C291        F307   1.357       .  S
C292        C293   1.419       .  A
C293        F296   1.349       .  S
C294        C297   1.410       .  A
C294        C301   1.399       .  A
C297        C298   1.402       .  A
C297        F302   1.358       .  S
C298        C299   1.406       .  A
C298        F304   1.357       .  S
C299        C300   1.414       .  A
C300        C301   1.397       .  A
C300        F303   1.358       .  S
C301        F305   1.358       .  S
C308        C309   1.411       .  A
C308        C313   1.411       .  A
C308        F326   1.357       .  S
C309        C314   1.510       .  S
C309        C310   1.410       .  A
C310        C311   1.410       .  A
C310        F315   1.358       .  S
C311        C312   1.410       .  A
C311        F327   1.358       .  S
C312        C313   1.412       .  A
C313        F316   1.357       .  S
C314        C317   1.411       .  A
C314        C321   1.407       .  A
C317        C318   1.414       .  A
C317        F322   1.358       .  S
C318        C319   1.416       .  A
C318        F324   1.357       .  S
C319        C320   1.417       .  A
C320        C321   1.409       .  A
C320        F323   1.357       .  S
C321        F325   1.357       .  S
C328        C329   1.413       .  A
C328        C333   1.409       .  A
C328        F346   1.358       .  S
C329        C334   1.493       .  S
C329        C330   1.401       .  A
C330        C331   1.395       .  A
C330        F335   1.358       .  S
C331        C332   1.416       .  A
C331        F347   1.358       .  S
C332        C333   1.408       .  A
C333        F336   1.357       .  S
C334        C337   1.400       .  A
C334        C341   1.414       .  A
C337        C338   1.393       .  A
C337        F342   1.358       .  S
C338        C339   1.412       .  A
C338        F344   1.350       .  S
C339        C340   1.406       .  A
C340        C341   1.410       .  A
C340        F343   1.357       .  S
C341        F345   1.357       .  S
C348        C349   1.403       .  A
C348        C353   1.403       .  A
C348        F366   1.358       .  S
C349        C354   1.488       .  S
C349        C350   1.409       .  A
C350        C351   1.405       .  A
C350        F355   1.358       .  S
C351        C352   1.404       .  A
C351        F367   1.357       .  S
C352        C353   1.411       .  A
C353        F356   1.358       .  S
C354        C357   1.400       .  A
C354        C361   1.403       .  A
C357        C358   1.400       .  A
C357        F362   1.358       .  S
C358        C359   1.418       .  A
C358        F364   1.352       .  S
C359        C360   1.420       .  A
C360        C361   1.407       .  A
C360        F363   1.357       .  S
C361        F365   1.357       .  S
C368        C369   1.405       .  A
C368        C373   1.405       .  A
C368        F386   1.358       .  S
C369        C374   1.493       .  S
C369        C370   1.407       .  A
C370        C371   1.406       .  A
C370        F375   1.358       .  S
C371        C372   1.414       .  A
C371        F387   1.358       .  S
C372        C373   1.411       .  A
C373        F376   1.357       .  S
C374        C377   1.401       .  A
C374        C381   1.409       .  A
C377        C378   1.398       .  A
C377        F382   1.358       .  S
C378        C379   1.416       .  A
C378        F384   1.354       .  S
C379        C380   1.412       .  A
C380        C381   1.410       .  A
C380        F383   1.357       .  S
C381        F385   1.357       .  S
C388        C389   1.408       .  A
C388        C393   1.403       .  A
C388        F406   1.358       .  S
C389        C394   1.494       .  S
C389        C390   1.404       .  A
C390        C391   1.399       .  A
C390        F395   1.358       .  S
C391        C392   1.415       .  A
C391        F407   1.352       .  S
C392        C393   1.409       .  A
C393        F396   1.357       .  S
C394        C397   1.402       .  A
C394        C401   1.413       .  A
C397        C398   1.395       .  A
C397        F402   1.358       .  S
C398        C399   1.414       .  A
C398        F404   1.358       .  S
C399        C400   1.408       .  A
C400        C401   1.408       .  A
C400        F403   1.358       .  S
C401        F405   1.358       .  S
C408        C409   1.411       .  A
C408        C413   1.406       .  A
C408        F426   1.357       .  S
C409        C414   1.502       .  S
C409        C410   1.411       .  A
C410        C411   1.403       .  A
C410        F415   1.358       .  S
C411        C412   1.407       .  A
C411        F427   1.356       .  S
C412        C413   1.405       .  A
C413        F416   1.357       .  S
C414        C417   1.411       .  A
C414        C421   1.408       .  A
C417        C418   1.408       .  A
C417        F422   1.358       .  S
C418        C419   1.412       .  A
C418        F424   1.358       .  S
C419        C420   1.411       .  A
C420        C421   1.403       .  A
C420        F423   1.358       .  S
C421        F425   1.358       .  S
C428        C429   1.411       .  A
C428        C433   1.397       .  A
C428        F446   1.358       .  S
C429        C434   1.501       .  S
C429        C430   1.411       .  A
C430        C431   1.411       .  A
C430        F435   1.357       .  S
C431        C432   1.411       .  A
C431        F447   1.358       .  S
C432        C433   1.403       .  A
C433        F436   1.358       .  S
C434        C437   1.410       .  A
C434        C441   1.403       .  A
C437        C438   1.411       .  A
C437        F442   1.357       .  S
C438        C439   1.415       .  A
C438        F444   1.357       .  S
C439        C440   1.419       .  A
C440        C441   1.394       .  A
C440        F443   1.352       .  S
C441        F445   1.359       .  S
C448        C449   1.400       .  A
C448        C453   1.396       .  A
C448        F466   1.358       .  S
C449        C454   1.458       .  S
C449        C450   1.398       .  A
C450        C451   1.388       .  A
C450        F455   1.359       .  S
C451        C452   1.407       .  A
C451        F467   1.356       .  S
C452        C453   1.405       .  A
C453        F456   1.355       .  S
C454        C457   1.399       .  A
C454        C461   1.398       .  A
C457        C458   1.390       .  A
C457        F462   1.359       .  S
C458        C459   1.410       .  A
C458        F464   1.358       .  S
C459        C460   1.411       .  A
C460        C461   1.393       .  A
C460        F463   1.356       .  S
C461        F465   1.358       .  S
C468        C469   1.400       .  A
C468        C473   1.393       .  A
C468        F486   1.358       .  S
C469        C474   1.466       .  S
C469        C470   1.402       .  A
C470        C471   1.393       .  A
C470        F475   1.358       .  S
C471        C472   1.408       .  A
C471        F487   1.358       .  S
C472        C473   1.410       .  A
C473        F476   1.358       .  S
C474        C477   1.402       .  A
C474        C481   1.402       .  A
C477        C478   1.391       .  A
C477        F482   1.358       .  S
C478        C479   1.403       .  A
C478        F484   1.352       .  S
C479        C480   1.406       .  A
C480        C481   1.395       .  A
C480        F483   1.356       .  S
C481        F485   1.358       .  S
C488        C489   1.401       .  A
C488        C493   1.393       .  A
C488        F506   1.358       .  S
C489        C494   1.459       .  S
C489        C490   1.399       .  A
C490        C491   1.390       .  A
C490        F495   1.359       .  S
C491        C492   1.409       .  A
C491        F507   1.358       .  S
C492        C493   1.406       .  A
C493        F496   1.358       .  S
C494        C497   1.400       .  A
C494        C501   1.401       .  A
C497        C498   1.391       .  A
C497        F502   1.358       .  S
C498        C499   1.402       .  A
C498        F504   1.351       .  S
C499        C500   1.401       .  A
C500        C501   1.389       .  A
C500        F503   1.355       .  S
C501        F505   1.358       .  S
C508        C509   1.407       .  A
C508        C513   1.396       .  A
C508        F526   1.358       .  S
C509        C514   1.479       .  S
C509        C510   1.404       .  A
C510        C511   1.395       .  A
C510        F515   1.358       .  S
C511        C512   1.406       .  A
C511        F527   1.356       .  S
C512        C513   1.402       .  A
C513        F516   1.355       .  S
C514        C517   1.407       .  A
C514        C521   1.403       .  A
C517        C518   1.400       .  A
C517        F522   1.358       .  S
C518        C519   1.408       .  A
C518        F524   1.358       .  S
C519        C520   1.410       .  A
C520        C521   1.393       .  A
C520        F523   1.358       .  S
C521        F525   1.358       .  S
C528        C529   1.406       .  A
C528        C533   1.400       .  A
C528        F546   1.358       .  S
C529        C534   1.490       .  S
C529        C530   1.409       .  A
C530        C531   1.404       .  A
C530        F535   1.358       .  S
C531        C532   1.407       .  A
C531        F547   1.358       .  S
C532        C533   1.409       .  A
C533        F536   1.358       .  S
C534        C537   1.405       .  A
C534        C541   1.406       .  A
C537        C538   1.402       .  A
C537        F542   1.358       .  S
C538        C539   1.409       .  A
C538        F544   1.354       .  S
C539        C540   1.411       .  A
C540        C541   1.402       .  A
C540        F543   1.357       .  S
C541        F545   1.358       .  S
C548        C549   1.398       .  A
C548        C553   1.387       .  A
C548        F566   1.358       .  S
C549        C554   1.449       .  S
C549        C550   1.398       .  A
C550        C551   1.381       .  A
C550        F555   1.359       .  S
C551        C552   1.406       .  A
C551        F567   1.354       .  S
C552        C553   1.408       .  A
C553        F556   1.356       .  S
C554        C557   1.400       .  A
C554        C561   1.399       .  A
C557        C558   1.388       .  A
C557        F562   1.358       .  S
C558        C559   1.406       .  A
C558        F564   1.358       .  S
C559        C560   1.407       .  A
C560        C561   1.381       .  A
C560        F563   1.359       .  S
C561        F565   1.359       .  S
C568        C569   1.401       .  A
C568        C573   1.390       .  A
C568        F586   1.359       .  S
C569        C574   1.459       .  S
C569        C570   1.401       .  A
C570        C571   1.394       .  A
C570        F575   1.358       .  S
C571        C572   1.407       .  A
C571        F587   1.358       .  S
C572        C573   1.405       .  A
C573        F576   1.358       .  S
C574        C577   1.400       .  A
C574        C581   1.397       .  A
C577        C578   1.395       .  A
C577        F582   1.358       .  S
C578        C579   1.408       .  A
C578        F584   1.353       .  S
C579        C580   1.404       .  A
C580        C581   1.388       .  A
C580        F583   1.349       .  S
C581        F585   1.359       .  S
C588        C589   1.408       .  A
C588        C593   1.397       .  A
C588        F606   1.358       .  S
C589        C594   1.482       .  S
C589        C590   1.405       .  A
C590        C591   1.397       .  A
C590        F595   1.358       .  S
C591        C592   1.407       .  A
C591        F607   1.358       .  S
C592        C593   1.406       .  A
C593        F596   1.358       .  S
C594        C597   1.402       .  A
C594        C601   1.407       .  A
C597        C598   1.395       .  A
C597        F602   1.358       .  S
C598        C599   1.409       .  A
C598        F604   1.352       .  S
C599        C600   1.408       .  A
C600        C601   1.398       .  A
C600        F603   1.356       .  S
C601        F605   1.358       .  S
O608        C616   1.257       .  A
O608       Co628   1.975       .  S
O609        C617   1.270       .  A
O609       Co629   1.970       .  S
O610        C618   1.295       .  A
O610       Co630   2.098       .  S
O611        C619   1.268       .  A
O611       Co631   1.994       .  S
O612        C618   1.262       .  A
O612       Co629   1.874       .  S
O613        C619   1.257       .  A
O613       Co628   1.938       .  S
O614        C617   1.283       .  A
O615        C616   1.263       .  A
C616       C1199   1.475       .  S
C617       C1139   1.483       .  S
C618       C1179   1.462       .  S
C619       C1166   1.453       .  S
O620        C633   1.276       .  A
O620       Co628   2.037       .  S
O621        C634   1.295       .  A
O621       Co629   2.108       .  S
O622        C635   1.264       .  A
O623        C636   1.252       .  A
O624        C636   1.258       .  A
O624       Co629   1.992       .  S
O625        C635   1.274       .  A
O625       Co628   2.012       .  S
O626        C633   1.259       .  A
O626       Co631   1.950       .  S
O627        C634   1.265       .  A
O627       Co630   1.874       .  S
Co628       O632   2.014       .  S
Co631       O632   2.002       .  S
C633       C1126   1.479       .  S
C634       C1066   1.472       .  S
C635       C1079   1.471       .  S
C636       C1099   1.464       .  S
O637        C645   1.270       .  A
O637       Co657   1.914   1_565  S
O638        C646   1.251       .  A
O638       Co658   1.939       .  S
O639        C647   1.266       .  A
O640        C648   1.282       .  A
O640       Co660   2.054       .  S
O641        C647   1.249       .  A
O641       Co658   1.957   1_565  S
O642        C648   1.268       .  A
O642       Co657   1.983       .  S
O643        C646   1.275       .  A
O644        C645   1.295       .  A
O644       Co659   2.102       .  S
C645        C979   1.499       .  S
C646        C906   1.484       .  S
C647       C1006   1.492       .  S
C648        C926   1.516       .  S
O649        C662   1.268       .  A
O649       Co657   2.032       .  S
O650        C663   1.278       .  A
O650       Co658   2.030   1_565  S
O651        C664   1.268       .  A
O651       Co659   1.905       .  S
O652        C665   1.256       .  A
O653        C665   1.275       .  A
O653       Co658   2.041       .  S
O654        C664   1.294       .  A
O654       Co657   2.105   1_565  S
O655        C662   1.252       .  A
O655       Co660   1.958       .  S
O656        C663   1.269       .  A
Co657       O661   2.023       .  S
Co659       O661   2.028   1_565  S
Co660       O661   2.038       .  S
C662        C939   1.495       .  S
C663       C1026   1.499       .  S
C664       C1039   1.487       .  S
C665        C959   1.483       .  S
O666        C674   1.296       .  A
O666       Co686   2.099       .  S
O667        C675   1.277       .  A
O668        C676   1.264       .  A
O668       Co688   1.967   1_455  S
O669        C677   1.252       .  A
O669       Co689   1.963   1_655  S
O670        C676   1.279       .  A
O670       Co687   2.038       .  S
O671        C677   1.266       .  A
O672        C675   1.255       .  A
O672       Co689   1.952       .  S
O673        C674   1.268       .  A
O673       Co688   1.907       .  S
C674        C879   1.491       .  S
C675        C759   1.489       .  S
C676        C739   1.498       .  S
C677        C859   1.497       .  S
O678        C691   1.270       .  A
O679        C692   1.253       .  A
O679       Co687   1.966       .  S
O680        C693   1.289       .  A
O680       Co688   2.086       .  S
O681        C694   1.275       .  A
O681       Co689   2.045       .  S
O682        C694   1.255       .  A
O683        C693   1.268       .  A
O683       Co686   1.911       .  S
O684        C691   1.279       .  A
O684       Co689   2.028   1_655  S
O685        C692   1.269       .  A
O685       Co688   2.034   1_455  S
Co686       O690   2.024   1_655  S
Co687       O690   2.026       .  S
Co688       O690   2.014   1_655  S
C691        C839   1.496       .  S
C692        C799   1.500       .  S
C693        C819   1.473       .  S
C694        C779   1.486       .  S
C695        H696   1.089       .  S
C695        C701   1.535       .  S
C695        C700   1.552       .  S
C695        C699   1.559       .  S
C697        H698   1.106       .  S
C697        C703   1.557       .  S
C697        C702   1.526       .  S
C697        C704   1.556       .  S
C699        C702   1.377       .  D
C699       C1186   1.479       .  S
C700        C703   1.389       .  D
C700        C966   1.531       .  S
C701        C704   1.376       .  D
C701        C786   1.508       .  S
C702       C1206   1.493       .  S
C703        C946   1.509       .  S
C704        C806   1.507       .  S
C705        H706   1.104       .  S
C705        C711   1.536       .  S
C705        C710   1.534       .  S
C705        C709   1.541       .  S
C707        H708   1.107       .  S
C707        C713   1.554       .  S
C707        C712   1.538       .  S
C707        C714   1.546       .  S
C709        C712   1.376       .  D
C709       C1159   1.467       .  S
C710        C713   1.388       .  D
C710        C919   1.511       .  S
C711        C714   1.380       .  D
C711        C826   1.515       .  S
C712       C1146   1.501       .  S
C713        C899   1.507       .  S
C714        C846   1.493       .  S
C715        H716   1.107       .  S
C715        C721   1.544       .  S
C715        C720   1.549       .  S
C715        C719   1.531       .  S
C717        H718   1.109       .  S
C717        C723   1.543       .  S
C717        C722   1.536       .  S
C717        C724   1.548       .  S
C719        C722   1.369       .  D
C719       C1086   1.478       .  S
C720        C723   1.388       .  D
C720       C1046   1.521       .  S
C721        C724   1.384       .  D
C721        C746   1.499       .  S
C722       C1059   1.475       .  S
C723       C1019   1.497       .  S
C724        C766   1.517       .  S
C725        H726   1.107       .  S
C725        C731   1.544       .  S
C725        C730   1.551       .  S
C725        C729   1.516       .  S
C727        H728   1.102       .  S
C727        C733   1.545       .  S
C727        C732   1.547       .  S
C727        C734   1.548       .  S
C729        C732   1.363       .  D
C729       C1106   1.468       .  S
C730        C733   1.388       .  D
C730        C999   1.506       .  S
C731        C734   1.384       .  D
C731        C866   1.506       .  S
C732       C1119   1.478       .  S
C733        C986   1.511       .  S
C734        C886   1.507       .  S
C735        C736   1.404       .  A
C735        C740   1.402       .  A
C735        F753   1.358       .  S
C736        C741   1.491       .  S
C736        C737   1.407       .  A
C737        C738   1.404       .  A
C737        F742   1.358       .  S
C738        C739   1.412       .  A
C738        F754   1.358       .  S
C739        C740   1.415       .  A
C740        F743   1.358       .  S
C741        C744   1.406       .  A
C741        C748   1.406       .  A
C744        C745   1.403       .  A
C744        F749   1.358       .  S
C745        C746   1.413       .  A
C745        F751   1.356       .  S
C746        C747   1.406       .  A
C747        C748   1.402       .  A
C747        F750   1.357       .  S
C748        F752   1.357       .  S
C755        C756   1.410       .  A
C755        C760   1.403       .  A
C755        F773   1.358       .  S
C756        C761   1.492       .  S
C756        C757   1.404       .  A
C757        C758   1.403       .  A
C757        F762   1.358       .  S
C758        C759   1.414       .  A
C758        F774   1.358       .  S
C759        C760   1.406       .  A
C760        F763   1.358       .  S
C761        C764   1.408       .  A
C761        C768   1.399       .  A
C764        C765   1.409       .  A
C764        F769   1.357       .  S
C765        C766   1.414       .  A
C765        F771   1.357       .  S
C766        C767   1.418       .  A
C767        C768   1.397       .  A
C767        F770   1.351       .  S
C768        F772   1.359       .  S
C775        C776   1.411       .  A
C775        C780   1.408       .  A
C775        F793   1.358       .  S
C776        C781   1.491       .  S
C776        C777   1.403       .  A
C777        C778   1.396       .  A
C777        F782   1.358       .  S
C778        C779   1.411       .  A
C778        F794   1.359       .  S
C779        C780   1.407       .  A
C780        F783   1.358       .  S
C781        C784   1.406       .  A
C781        C788   1.406       .  A
C784        C785   1.404       .  A
C784        F789   1.358       .  S
C785        C786   1.413       .  A
C785        F791   1.356       .  S
C786        C787   1.410       .  A
C787        C788   1.402       .  A
C787        F790   1.357       .  S
C788        F792   1.358       .  S
C795        C796   1.400       .  A
C795        C800   1.397       .  A
C795        F813   1.358       .  S
C796        C801   1.493       .  S
C796        C797   1.412       .  A
C797        C798   1.410       .  A
C797        F802   1.358       .  S
C798        C799   1.410       .  A
C798        F814   1.357       .  S
C799        C800   1.417       .  A
C800        F803   1.358       .  S
C801        C804   1.400       .  A
C801        C808   1.413       .  A
C804        C805   1.394       .  A
C804        F809   1.358       .  S
C805        C806   1.413       .  A
C805        F811   1.352       .  S
C806        C807   1.405       .  A
C807        C808   1.411       .  A
C807        F810   1.357       .  S
C808        F812   1.357       .  S
C815        C816   1.410       .  A
C815        C820   1.396       .  A
C815        F833   1.359       .  S
C816        C821   1.486       .  S
C816        C817   1.406       .  A
C817        C818   1.404       .  A
C817        F822   1.357       .  S
C818        C819   1.407       .  A
C818        F834   1.358       .  S
C819        C820   1.401       .  A
C820        F823   1.358       .  S
C821        C824   1.398       .  A
C821        C828   1.407       .  A
C824        C825   1.390       .  A
C824        F829   1.359       .  S
C825        C826   1.418       .  A
C825        F831   1.351       .  S
C826        C827   1.414       .  A
C827        C828   1.408       .  A
C827        F830   1.357       .  S
C828        F832   1.357       .  S
C835        C836   1.409       .  A
C835        C840   1.403       .  A
C835        F853   1.358       .  S
C836        C841   1.497       .  S
C836        C837   1.408       .  A
C837        C838   1.402       .  A
C837        F842   1.358       .  S
C838        C839   1.412       .  A
C838        F854   1.358       .  S
C839        C840   1.412       .  A
C840        F843   1.358       .  S
C841        C844   1.410       .  A
C841        C848   1.411       .  A
C844        C845   1.400       .  A
C844        F849   1.358       .  S
C845        C846   1.407       .  A
C845        F851   1.357       .  S
C846        C847   1.403       .  A
C847        C848   1.405       .  A
C847        F850   1.357       .  S
C848        F852   1.357       .  S
C855        C856   1.414       .  A
C855        C860   1.411       .  A
C855        F873   1.357       .  S
C856        C861   1.501       .  S
C856        C857   1.405       .  A
C857        C858   1.396       .  A
C857        F862   1.358       .  S
C858        C859   1.414       .  A
C858        F874   1.358       .  S
C859        C860   1.410       .  A
C860        F863   1.358       .  S
C861        C864   1.411       .  A
C861        C868   1.408       .  A
C864        C865   1.403       .  A
C864        F869   1.358       .  S
C865        C866   1.406       .  A
C865        F871   1.357       .  S
C866        C867   1.415       .  A
C867        C868   1.404       .  A
C867        F870   1.356       .  S
C868        F872   1.358       .  S
C875        C876   1.405       .  A
C875        C880   1.400       .  A
C875        F893   1.358       .  S
C876        C881   1.487       .  S
C876        C877   1.405       .  A
C877        C878   1.403       .  A
C877        F882   1.358       .  S
C878        C879   1.412       .  A
C878        F894   1.358       .  S
C879        C880   1.411       .  A
C880        F883   1.358       .  S
C881        C884   1.401       .  A
C881        C888   1.406       .  A
C884        C885   1.395       .  A
C884        F889   1.359       .  S
C885        C886   1.413       .  A
C885        F891   1.352       .  S
C886        C887   1.413       .  A
C887        C888   1.407       .  A
C887        F890   1.357       .  S
C888        F892   1.357       .  S
C895        C896   1.394       .  A
C895        C900   1.388       .  A
C895        F913   1.359       .  S
C896        C901   1.481       .  S
C896        C897   1.408       .  A
C897        C898   1.406       .  A
C897        F902   1.357       .  S
C898        C899   1.411       .  A
C898        F914   1.357       .  S
C899        C900   1.419       .  A
C900        F903   1.349       .  S
C901        C904   1.410       .  A
C901        C908   1.400       .  A
C904        C905   1.402       .  A
C904        F909   1.358       .  S
C905        C906   1.406       .  A
C905        F911   1.357       .  S
C906        C907   1.414       .  A
C907        C908   1.397       .  A
C907        F910   1.358       .  S
C908        F912   1.358       .  S
C915        C916   1.411       .  A
C915        C920   1.411       .  A
C915        F933   1.357       .  S
C916        C921   1.510       .  S
C916        C917   1.410       .  A
C917        C918   1.410       .  A
C917        F922   1.358       .  S
C918        C919   1.410       .  A
C918        F934   1.358       .  S
C919        C920   1.412       .  A
C920        F923   1.357       .  S
C921        C924   1.411       .  A
C921        C928   1.407       .  A
C924        C925   1.414       .  A
C924        F929   1.358       .  S
C925        C926   1.416       .  A
C925        F931   1.357       .  S
C926        C927   1.417       .  A
C927        C928   1.409       .  A
C927        F930   1.357       .  S
C928        F932   1.357       .  S
C935        C936   1.413       .  A
C935        C940   1.409       .  A
C935        F953   1.358       .  S
C936        C941   1.493       .  S
C936        C937   1.401       .  A
C937        C938   1.395       .  A
C937        F942   1.358       .  S
C938        C939   1.416       .  A
C938        F954   1.358       .  S
C939        C940   1.408       .  A
C940        F943   1.357       .  S
C941        C944   1.400       .  A
C941        C948   1.414       .  A
C944        C945   1.393       .  A
C944        F949   1.358       .  S
C945        C946   1.412       .  A
C945        F951   1.350       .  S
C946        C947   1.406       .  A
C947        C948   1.410       .  A
C947        F950   1.357       .  S
C948        F952   1.357       .  S
C955        C956   1.403       .  A
C955        C960   1.403       .  A
C955        F973   1.358       .  S
C956        C961   1.488       .  S
C956        C957   1.409       .  A
C957        C958   1.405       .  A
C957        F962   1.358       .  S
C958        C959   1.404       .  A
C958        F974   1.357       .  S
C959        C960   1.411       .  A
C960        F963   1.358       .  S
C961        C964   1.400       .  A
C961        C968   1.403       .  A
C964        C965   1.400       .  A
C964        F969   1.358       .  S
C965        C966   1.418       .  A
C965        F971   1.352       .  S
C966        C967   1.420       .  A
C967        C968   1.407       .  A
C967        F970   1.357       .  S
C968        F972   1.357       .  S
C975        C976   1.405       .  A
C975        C980   1.405       .  A
C975        F993   1.358       .  S
C976        C981   1.493       .  S
C976        C977   1.407       .  A
C977        C978   1.406       .  A
C977        F982   1.358       .  S
C978        C979   1.414       .  A
C978        F994   1.358       .  S
C979        C980   1.411       .  A
C980        F983   1.357       .  S
C981        C984   1.401       .  A
C981        C988   1.409       .  A
C984        C985   1.398       .  A
C984        F989   1.358       .  S
C985        C986   1.416       .  A
C985        F991   1.354       .  S
C986        C987   1.412       .  A
C987        C988   1.410       .  A
C987        F990   1.357       .  S
C988        F992   1.357       .  S
C995        C996   1.408       .  A
C995       C1000   1.403       .  A
C995       F1013   1.358       .  S
C996       C1001   1.494       .  S
C996        C997   1.404       .  A
C997        C998   1.399       .  A
C997       F1002   1.358       .  S
C998        C999   1.415       .  A
C998       F1014   1.352       .  S
C999       C1000   1.409       .  A
C1000      F1003   1.357       .  S
C1001      C1004   1.402       .  A
C1001      C1008   1.413       .  A
C1004      C1005   1.395       .  A
C1004      F1009   1.358       .  S
C1005      C1006   1.414       .  A
C1005      F1011   1.358       .  S
C1006      C1007   1.408       .  A
C1007      C1008   1.408       .  A
C1007      F1010   1.358       .  S
C1008      F1012   1.358       .  S
C1015      C1016   1.411       .  A
C1015      C1020   1.406       .  A
C1015      F1033   1.357       .  S
C1016      C1021   1.502       .  S
C1016      C1017   1.411       .  A
C1017      C1018   1.403       .  A
C1017      F1022   1.358       .  S
C1018      C1019   1.407       .  A
C1018      F1034   1.356       .  S
C1019      C1020   1.405       .  A
C1020      F1023   1.357       .  S
C1021      C1024   1.411       .  A
C1021      C1028   1.408       .  A
C1024      C1025   1.407       .  A
C1024      F1029   1.358       .  S
C1025      C1026   1.412       .  A
C1025      F1031   1.358       .  S
C1026      C1027   1.411       .  A
C1027      C1028   1.403       .  A
C1027      F1030   1.358       .  S
C1028      F1032   1.358       .  S
C1035      C1036   1.411       .  A
C1035      C1040   1.397       .  A
C1035      F1053   1.358       .  S
C1036      C1041   1.501       .  S
C1036      C1037   1.411       .  A
C1037      C1038   1.411       .  A
C1037      F1042   1.357       .  S
C1038      C1039   1.411       .  A
C1038      F1054   1.358       .  S
C1039      C1040   1.403       .  A
C1040      F1043   1.358       .  S
C1041      C1044   1.410       .  A
C1041      C1048   1.403       .  A
C1044      C1045   1.411       .  A
C1044      F1049   1.357       .  S
C1045      C1046   1.415       .  A
C1045      F1051   1.357       .  S
C1046      C1047   1.419       .  A
C1047      C1048   1.394       .  A
C1047      F1050   1.352       .  S
C1048      F1052   1.359       .  S
C1055      C1056   1.400       .  A
C1055      C1060   1.396       .  A
C1055      F1073   1.358       .  S
C1056      C1061   1.458       .  S
C1056      C1057   1.398       .  A
C1057      C1058   1.388       .  A
C1057      F1062   1.359       .  S
C1058      C1059   1.407       .  A
C1058      F1074   1.356       .  S
C1059      C1060   1.405       .  A
C1060      F1063   1.355       .  S
C1061      C1064   1.399       .  A
C1061      C1068   1.398       .  A
C1064      C1065   1.390       .  A
C1064      F1069   1.359       .  S
C1065      C1066   1.410       .  A
C1065      F1071   1.358       .  S
C1066      C1067   1.411       .  A
C1067      C1068   1.393       .  A
C1067      F1070   1.356       .  S
C1068      F1072   1.358       .  S
C1075      C1076   1.400       .  A
C1075      C1080   1.393       .  A
C1075      F1093   1.358       .  S
C1076      C1081   1.466       .  S
C1076      C1077   1.402       .  A
C1077      C1078   1.393       .  A
C1077      F1082   1.358       .  S
C1078      C1079   1.408       .  A
C1078      F1094   1.358       .  S
C1079      C1080   1.410       .  A
C1080      F1083   1.358       .  S
C1081      C1084   1.402       .  A
C1081      C1088   1.402       .  A
C1084      C1085   1.392       .  A
C1084      F1089   1.358       .  S
C1085      C1086   1.403       .  A
C1085      F1091   1.352       .  S
C1086      C1087   1.406       .  A
C1087      C1088   1.395       .  A
C1087      F1090   1.356       .  S
C1088      F1092   1.358       .  S
C1095      C1096   1.401       .  A
C1095      C1100   1.393       .  A
C1095      F1113   1.358       .  S
C1096      C1101   1.459       .  S
C1096      C1097   1.399       .  A
C1097      C1098   1.390       .  A
C1097      F1102   1.359       .  S
C1098      C1099   1.409       .  A
C1098      F1114   1.358       .  S
C1099      C1100   1.406       .  A
C1100      F1103   1.358       .  S
C1101      C1104   1.400       .  A
C1101      C1108   1.401       .  A
C1104      C1105   1.391       .  A
C1104      F1109   1.358       .  S
C1105      C1106   1.402       .  A
C1105      F1111   1.351       .  S
C1106      C1107   1.401       .  A
C1107      C1108   1.389       .  A
C1107      F1110   1.355       .  S
C1108      F1112   1.358       .  S
C1115      C1116   1.407       .  A
C1115      C1120   1.396       .  A
C1115      F1133   1.358       .  S
C1116      C1121   1.479       .  S
C1116      C1117   1.404       .  A
C1117      C1118   1.395       .  A
C1117      F1122   1.358       .  S
C1118      C1119   1.406       .  A
C1118      F1134   1.356       .  S
C1119      C1120   1.402       .  A
C1120      F1123   1.355       .  S
C1121      C1124   1.407       .  A
C1121      C1128   1.403       .  A
C1124      C1125   1.400       .  A
C1124      F1129   1.358       .  S
C1125      C1126   1.408       .  A
C1125      F1131   1.358       .  S
C1126      C1127   1.410       .  A
C1127      C1128   1.393       .  A
C1127      F1130   1.358       .  S
C1128      F1132   1.358       .  S
C1135      C1136   1.406       .  A
C1135      C1140   1.400       .  A
C1135      F1153   1.358       .  S
C1136      C1141   1.490       .  S
C1136      C1137   1.409       .  A
C1137      C1138   1.404       .  A
C1137      F1142   1.358       .  S
C1138      C1139   1.407       .  A
C1138      F1154   1.358       .  S
C1139      C1140   1.409       .  A
C1140      F1143   1.358       .  S
C1141      C1144   1.405       .  A
C1141      C1148   1.406       .  A
C1144      C1145   1.402       .  A
C1144      F1149   1.358       .  S
C1145      C1146   1.409       .  A
C1145      F1151   1.354       .  S
C1146      C1147   1.411       .  A
C1147      C1148   1.402       .  A
C1147      F1150   1.357       .  S
C1148      F1152   1.358       .  S
C1155      C1156   1.398       .  A
C1155      C1160   1.387       .  A
C1155      F1173   1.358       .  S
C1156      C1161   1.449       .  S
C1156      C1157   1.398       .  A
C1157      C1158   1.381       .  A
C1157      F1162   1.359       .  S
C1158      C1159   1.406       .  A
C1158      F1174   1.354       .  S
C1159      C1160   1.408       .  A
C1160      F1163   1.356       .  S
C1161      C1164   1.400       .  A
C1161      C1168   1.399       .  A
C1164      C1165   1.388       .  A
C1164      F1169   1.358       .  S
C1165      C1166   1.406       .  A
C1165      F1171   1.358       .  S
C1166      C1167   1.407       .  A
C1167      C1168   1.381       .  A
C1167      F1170   1.359       .  S
C1168      F1172   1.359       .  S
C1175      C1176   1.401       .  A
C1175      C1180   1.390       .  A
C1175      F1193   1.359       .  S
C1176      C1181   1.459       .  S
C1176      C1177   1.401       .  A
C1177      C1178   1.394       .  A
C1177      F1182   1.358       .  S
C1178      C1179   1.407       .  A
C1178      F1194   1.358       .  S
C1179      C1180   1.405       .  A
C1180      F1183   1.358       .  S
C1181      C1184   1.400       .  A
C1181      C1188   1.397       .  A
C1184      C1185   1.395       .  A
C1184      F1189   1.358       .  S
C1185      C1186   1.408       .  A
C1185      F1191   1.354       .  S
C1186      C1187   1.404       .  A
C1187      C1188   1.388       .  A
C1187      F1190   1.349       .  S
C1188      F1192   1.359       .  S
C1195      C1196   1.408       .  A
C1195      C1200   1.397       .  A
C1195      F1213   1.358       .  S
C1196      C1201   1.482       .  S
C1196      C1197   1.405       .  A
C1197      C1198   1.397       .  A
C1197      F1202   1.358       .  S
C1198      C1199   1.407       .  A
C1198      F1214   1.358       .  S
C1199      C1200   1.406       .  A
C1200      F1203   1.358       .  S
C1201      C1204   1.402       .  A
C1201      C1208   1.407       .  A
C1204      C1205   1.395       .  A
C1204      F1209   1.358       .  S
C1205      C1206   1.409       .  A
C1205      F1211   1.352       .  S
C1206      C1207   1.408       .  A
C1207      C1208   1.398       .  A
C1207      F1210   1.356       .  S
C1208      F1212   1.358       .  S
