geometry optimzed in LAMMPS
_audit_creation_date              2020-11-30 
_audit_creation_method            'lammps2cif' 
_symmetry_space_group_name_H-M    'P1' 
_symmetry_Int_Tables_number       1 
_symmetry_cell_setting            triclinic 
loop_ 
_symmetry_equiv_pos_as_xyz 
  x,y,z 
_cell_length_a                    29.680186407341747 
_cell_length_b                    24.738515614467197 
_cell_length_c                    45.714709417933534 
_cell_angle_alpha                 90.06558569585857 
_cell_angle_beta                  89.92238394187314 
_cell_angle_gamma                 89.18419489340545 
loop_ 
_atom_site_label 
_atom_site_type_symbol 
_atom_site_fract_x 
_atom_site_fract_y 
_atom_site_fract_z 
_atom_site_charge 
C1          C  0.38057265  0.93983605  0.26669220     0.03510
C2          C  0.42622109  0.94281419  0.27386163    -0.12640
C3          C  0.44449605  0.91054376  0.29602952     0.01010
C4          C  0.41630128  0.87696215  0.31229669    -0.11170
C5          C  0.36993101  0.87476650  0.30589540     0.03500
C6          C  0.35226649  0.90634430  0.28287946    -0.10590
H7          H  0.44825796  0.96784356  0.26082873     0.09090
H8          H  0.43090979  0.85053384  0.32873948     0.06620
H9          H  0.31698046  0.90393180  0.27704226     0.06470
C10         C  0.69922786  0.95008074  0.26079447     0.03510
C11         C  0.65321323  0.94775072  0.26742627    -0.12640
C12         C  0.63727627  0.91106158  0.28801252     0.01010
C13         C  0.66764831  0.87736817  0.30283320    -0.11170
C14         C  0.71393768  0.87828227  0.29618747     0.03500
C15         C  0.72962718  0.91437169  0.27471016    -0.10590
H16         H  0.62940988  0.97338713  0.25571468     0.09090
H17         H  0.65478854  0.84865936  0.31856277     0.06620
H18         H  0.76504210  0.91494413  0.26897151     0.06470
C19         C  0.69339623  0.08772760  0.16321570     0.03510
C20         C  0.72146811  0.12208032  0.14733122    -0.12640
C21         C  0.70286977  0.15825519  0.12667863     0.01010
C22         C  0.65583947  0.16058669  0.12271077    -0.11170
C23         C  0.62765312  0.12669150  0.13883086     0.03500
C24         C  0.64678737  0.09002822  0.15870704    -0.10590
H25         H  0.75741513  0.12129787  0.15144757     0.09090
H26         H  0.64108292  0.19095643  0.10846476     0.06620
H27         H  0.62501656  0.06485429  0.17184271     0.06470
C28         C  0.37088068  0.08264628  0.17202232     0.03510
C29         C  0.34076671  0.11669025  0.15680604    -0.12640
C30         C  0.35737233  0.15557154  0.13726391     0.01010
C31         C  0.40416795  0.16009336  0.13312329    -0.11170
C32         C  0.43423607  0.12673910  0.14850985     0.03500
C33         C  0.41736969  0.08732983  0.16722329    -0.10590
H34         H  0.30481294  0.11254965  0.15977398     0.09090
H35         H  0.41736806  0.19069220  0.11861301     0.06620
H36         H  0.44071776  0.06063351  0.17860522     0.06470
C37         C  0.36843210  0.43951770  0.17664952     0.03510
C38         C  0.33886611  0.40606515  0.16125704    -0.12640
C39         C  0.35513436  0.37405600  0.13785000     0.01010
C40         C  0.40144520  0.37411302  0.13110659    -0.11170
C41         C  0.43111079  0.40565332  0.14734526     0.03500
C42         C  0.41403730  0.44032266  0.16886710    -0.10590
H43         H  0.30386634  0.40413395  0.16785509     0.09090
H44         H  0.41494713  0.34724349  0.11441810     0.06620
H45         H  0.43692276  0.46577954  0.18095897     0.06470
C46         C  0.68752192  0.45554175  0.15885784     0.03510
C47         C  0.64096658  0.44733226  0.15652128    -0.12640
C48         C  0.62392818  0.40692934  0.13840784     0.01010
C49         C  0.65372438  0.37293986  0.12316054    -0.11170
C50         C  0.70050857  0.37916656  0.12597786     0.03500
C51         C  0.71738061  0.42036451  0.14401047    -0.10590
H52         H  0.61770326  0.47228133  0.16910627     0.09090
H53         H  0.64050929  0.34018777  0.11011174     0.06620
H54         H  0.75342423  0.42529587  0.14629002     0.06470
C55         C  0.38102876  0.57607355  0.27368239     0.03510
C56         C  0.35264944  0.61302789  0.28836292    -0.12640
C57         C  0.37101868  0.65210710  0.30712681     0.01010
C58         C  0.41801727  0.65480390  0.31049132    -0.11170
C59         C  0.44642692  0.61968908  0.29481012     0.03500
C60         C  0.42786631  0.58014038  0.27682088    -0.10590
H61         H  0.31648852  0.61095490  0.28541953     0.09090
H62         H  0.43260896  0.68571501  0.32421734     0.06620
H63         H  0.45010208  0.55344446  0.26448307     0.06470
C64         C  0.69993610  0.59332158  0.25610327     0.03510
C65         C  0.65527919  0.58967354  0.26573595    -0.12640
C66         C  0.63965950  0.62025540  0.28940729     0.01010
C67         C  0.66952282  0.65321203  0.30460853    -0.11170
C68         C  0.71484094  0.65694470  0.29568106     0.03500
C69         C  0.72977505  0.62730803  0.27099491    -0.10590
H70         H  0.63167486  0.56528092  0.25354811     0.09090
H71         H  0.65669069  0.67827037  0.32229442     0.06620
H72         H  0.76380742  0.63188220  0.26291271     0.06470
C73         C  0.87963579  0.94756433  0.41232738     0.03510
C74         C  0.85114647  0.91312726  0.39683561    -0.12640
C75         C  0.86927494  0.87651490  0.37620057     0.01010
C76         C  0.91622950  0.87418895  0.37164235    -0.11170
C77         C  0.94475627  0.90876447  0.38704868     0.03500
C78         C  0.92604229  0.94588913  0.40691867    -0.10590
H79         H  0.81526652  0.91417189  0.40125093     0.09090
H80         H  0.93068473  0.84350687  0.35740245     0.06620
H81         H  0.94807193  0.97163003  0.41952417     0.06470
C82         C  0.20119028  0.94532109  0.42339596     0.03510
C83         C  0.23089581  0.91000909  0.40873517    -0.12640
C84         C  0.21476789  0.87622392  0.38637596     0.01010
C85         C  0.16831808  0.87634186  0.37999289    -0.11170
C86         C  0.13838906  0.90992018  0.39557407     0.03500
C87         C  0.15543835  0.94633271  0.41598143    -0.10590
H88         H  0.26604173  0.90821777  0.41507890     0.09090
H89         H  0.15503601  0.84821014  0.36410377     0.06620
H90         H  0.13252667  0.97338745  0.42755180     0.06470
C91         C  0.87394389  0.09393687  0.00639175     0.03510
C92         C  0.84312630  0.12582819  0.02241071    -0.12640
C93         C  0.85854389  0.15953152  0.04506560     0.01010
C94         C  0.90487817  0.16101357  0.05134923    -0.11170
C95         C  0.93561739  0.13034463  0.03490756     0.03500
C96         C  0.92002340  0.09628830  0.01284766    -0.10590
H97         H  0.80753997  0.12433501  0.01728975     0.09090
H98         H  0.91740113  0.18766293  0.06823229     0.06620
H99         H  0.94396132  0.07221032  0.00026270     0.06470
C100        C  0.19313541  0.08092083  0.02133009     0.03510
C101        C  0.14640011  0.08491246  0.02552570    -0.12640
C102        C  0.12793054  0.12284413  0.04493174     0.01010
C103        C  0.15631472  0.15735199  0.06029389    -0.11170
C104        C  0.20321078  0.15469627  0.05591645     0.03500
C105        C  0.22152010  0.11671622  0.03608557    -0.10590
H106        H  0.12416988  0.05909739  0.01313394     0.09090
H107        H  0.14166665  0.18755207  0.07479124     0.06620
H108        H  0.25756503  0.11459304  0.03235453     0.06470
C109        C  0.88108276  0.58308593  0.41185335     0.03510
C110        C  0.85197869  0.61746089  0.39611965    -0.12640
C111        C  0.86971196  0.65584557  0.37667145     0.01010
C112        C  0.91664476  0.66048729  0.37378094    -0.11170
C113        C  0.94579111  0.62675863  0.38973030     0.03500
C114        C  0.92774222  0.58835847  0.40871406    -0.10590
H115        H  0.81588637  0.61461751  0.39920394     0.09090
H116        H  0.93040607  0.69245696  0.36045920     0.06620
H117        H  0.95023855  0.56344585  0.42185911     0.06470
C118        C  0.20168396  0.58461358  0.42181924     0.03510
C119        C  0.15523378  0.59141298  0.41738201    -0.12640
C120        C  0.13864720  0.63104661  0.39835693     0.01010
C121        C  0.16879853  0.66293759  0.38276142    -0.11170
C122        C  0.21548192  0.65748057  0.38735532     0.03500
C123        C  0.23188813  0.61872501  0.40736831    -0.10590
H124        H  0.13175846  0.56631986  0.42922943     0.09090
H125        H  0.15570264  0.69357519  0.36798190     0.06620
H126        H  0.26775957  0.61444045  0.41128023     0.06470
C127        C  0.87205098  0.44569510  0.00936098     0.03510
C128        C  0.84195790  0.41153944  0.02377515    -0.12640
C129        C  0.85773070  0.37675009  0.04599909     0.01010
C130        C  0.90404440  0.37530297  0.05282850    -0.11170
C131        C  0.93415345  0.40936735  0.03847519     0.03500
C132        C  0.91768596  0.44482133  0.01705195    -0.10590
H133        H  0.80678429  0.41163207  0.01746719     0.09090
H134        H  0.91696640  0.34556069  0.06812421     0.06620
H135        H  0.94099935  0.47021178  0.00523256     0.06470
C136        C  0.19512452  0.44727985  0.01824207     0.03510
C137        C  0.14861417  0.44922255  0.02333727    -0.12640
C138        C  0.12844369  0.41244570  0.04230738     0.01010
C139        C  0.15583756  0.37793096  0.05919198    -0.11170
C140        C  0.20292878  0.37718959  0.05525947     0.03500
C141        C  0.22225844  0.41112252  0.03410910    -0.10590
H142        H  0.12767802  0.47708687  0.01089054     0.09090
H143        H  0.14030360  0.34943425  0.07395957     0.06620
H144        H  0.25803857  0.40857797  0.02948509     0.06470
O145        O  0.23457515  0.71159943  0.34659361    -0.74050
O146        O  0.30552215  0.81863661  0.30881524    -0.74080
O147        O  0.30581138  0.70915146  0.30940428    -0.74140
O148        O  0.23411677  0.81980650  0.34600301    -0.74180
O149        O  0.28101367  0.82025896  0.38407927    -0.74120
O150        O  0.35340142  0.71023164  0.34713560    -0.74090
O151        O  0.35263362  0.81892291  0.34677775    -0.74070
O152        O  0.28188394  0.71068577  0.38448621    -0.74140
Ni153      Ni  0.26843608  0.76479475  0.32632815     1.25410
Ni154      Ni  0.31891195  0.76503141  0.36700279     1.25360
C155        C  0.24590590  0.69440482  0.37197714     0.88130
C156        C  0.34109872  0.83594890  0.32136994     0.88060
C157        C  0.34176043  0.69205353  0.32204811     0.88090
C158        C  0.24508376  0.83734341  0.37134083     0.88260
O159        O  0.78043764  0.71215045  0.29815153    -0.74050
O160        O  0.85164094  0.82012810  0.33570032    -0.74080
O161        O  0.85163607  0.71157024  0.33580385    -0.74140
O162        O  0.78029249  0.82198226  0.29825223    -0.74180
O163        O  0.73313070  0.82171630  0.33626656    -0.74120
O164        O  0.80404566  0.71182234  0.37363118    -0.74090
O165        O  0.80414442  0.82129273  0.37356316    -0.74070
O166        O  0.73329487  0.71315211  0.33615397    -0.74140
Ni167      Ni  0.81766545  0.76640391  0.31558369     1.25410
Ni168      Ni  0.76702646  0.76703121  0.35624471     1.25360
C169        C  0.74463636  0.69549081  0.31078722     0.88130
C170        C  0.84003188  0.83781933  0.36099580     0.88060
C171        C  0.84003333  0.69438973  0.36113311     0.88090
C172        C  0.74436869  0.83931233  0.31099315     0.88260
O173        O  0.33746064  0.31902650  0.09683940    -0.74050
O174        O  0.26819547  0.21009973  0.05886171    -0.74080
O175        O  0.26743880  0.31955369  0.05879665    -0.74140
O176        O  0.33855176  0.21077621  0.09668375    -0.74180
O177        O  0.29040726  0.21022697  0.13420543    -0.74120
O178        O  0.21896485  0.32003171  0.09612850    -0.74090
O179        O  0.21984066  0.21138691  0.09627540    -0.74070
O180        O  0.28936699  0.31981960  0.13436467    -0.74140
Ni181      Ni  0.30452509  0.26485259  0.07644024     1.25410
Ni182      Ni  0.25292298  0.26537496  0.11660991     1.25360
C183        C  0.32549974  0.33639271  0.12214699     0.88130
C184        C  0.23213095  0.19350152  0.07116776     0.88060
C185        C  0.23125247  0.33728740  0.07095627     0.88090
C186        C  0.32686888  0.19342838  0.12188979     0.88260
O187        O  0.79136338  0.32281582  0.04835782    -0.74050
O188        O  0.72005045  0.21453382  0.08590529    -0.74080
O189        O  0.71964780  0.32308901  0.08564031    -0.74140
O190        O  0.79144971  0.21341533  0.04832932    -0.74180
O191        O  0.83862766  0.21364000  0.08626628    -0.74120
O192        O  0.76676464  0.32354884  0.12363849    -0.74090
O193        O  0.76748682  0.21392439  0.12371489    -0.74070
O194        O  0.83822042  0.32183703  0.08645912    -0.74140
Ni195      Ni  0.75394702  0.26848059  0.06568758     1.25410
Ni196      Ni  0.80435566  0.26820999  0.10639845     1.25360
C197        C  0.82724926  0.33912580  0.06103358     0.88130
C198        C  0.73174718  0.19704009  0.11121524     0.88060
C199        C  0.73085249  0.34064795  0.11092216     0.88090
C200        C  0.82760568  0.19658993  0.06081208     0.88260
C201        C  0.00839444  0.38743037  0.01741160    -0.05400
C202        C  0.98367652  0.40353908  0.04215718     0.00520
C203        C  0.00674690  0.41867730  0.06797419    -0.08050
C204        C  0.05427704  0.41976394  0.06747674    -0.05430
C205        C  0.07876022  0.40670469  0.04207590     0.00510
C206        C  0.05560146  0.38872503  0.01678728    -0.07960
C207        C  0.08011290  0.37170325  0.48892527     0.62420
H208        H  0.99005535  0.37569931  0.99798823     0.13110
H209        H  0.07275733  0.43217985  0.08669476     0.13130
C210        C  0.98148342  0.43499861  0.09556037     0.62650
F211        F  0.05193372  0.34492737  0.46984409    -0.22510
F212        F  0.11577466  0.33722085  0.49546825    -0.19840
F213        F  0.09596383  0.41669301  0.47455659    -0.19520
F214        F  0.95892317  0.39103993  0.10663894    -0.19570
F215        F  0.95079728  0.47600302  0.08940684    -0.19890
F216        F  0.01032156  0.45329318  0.11706925    -0.22570
C217        C  0.20094776  0.45654183  0.46510792    -0.05400
C218        C  0.21254088  0.47673606  0.49266088     0.00520
C219        C  0.23231103  0.52817154  0.49500885    -0.08050
C220        C  0.23411418  0.56101412  0.46987331    -0.05430
C221        C  0.21681487  0.54314545  0.44301370     0.00510
C222        C  0.20341419  0.48866660  0.44002348    -0.07960
C223        C  0.18836792  0.46388050  0.41135016     0.62420
H224        H  0.18703657  0.41633945  0.46347445     0.13110
H225        H  0.24494478  0.60250686  0.47166741     0.13130
C226        C  0.24902975  0.54891555  0.02416601     0.62650
F227        F  0.21042588  0.41479283  0.40726492    -0.22510
F228        F  0.19783730  0.49612383  0.38749296    -0.19840
F229        F  0.14246255  0.45514403  0.41238011    -0.19520
F230        F  0.28163152  0.51380539  0.03495531    -0.19570
F231        F  0.21369588  0.55234105  0.04385399    -0.19890
F232        F  0.26787785  0.59957185  0.02163160    -0.22570
C233        C  0.85151163  0.56726829  0.46152795    -0.05400
C234        C  0.86432327  0.54548267  0.43436106     0.00520
C235        C  0.86905086  0.48878672  0.43107773    -0.08050
C236        C  0.86602386  0.45605047  0.45608103    -0.05430
C237        C  0.85856726  0.47861454  0.48383584     0.00510
C238        C  0.84861654  0.53443042  0.48655685    -0.07960
C239        C  0.83715306  0.55910294  0.01604844     0.62420
H240        H  0.84743123  0.61071974  0.46345773     0.13110
H241        H  0.87318575  0.41306396  0.45452285     0.13130
C242        C  0.87878232  0.46336601  0.40147199     0.62650
F243        F  0.82612435  0.61350348  0.01375349    -0.22510
F244        F  0.87352184  0.55378794  0.03474603    -0.19840
F245        F  0.80063616  0.53278697  0.02793219    -0.19520
F246        F  0.92133470  0.47707851  0.39198462    -0.19570
F247        F  0.84724995  0.48159286  0.38139738    -0.19890
F248        F  0.87672411  0.40751971  0.40255680    -0.22570
C249        C  0.01490819  0.65055829  0.41609784    -0.05400
C250        C  0.99509389  0.63492993  0.38963215     0.00520
C251        C  0.02273678  0.62308736  0.36508727    -0.08050
C252        C  0.06982846  0.62552044  0.36838122    -0.05430
C253        C  0.08951100  0.63908189  0.39524440     0.00510
C254        C  0.06170985  0.65398617  0.41923968    -0.07960
C255        C  0.07959092  0.67200414  0.44875822     0.62420
H256        H  0.99337775  0.65960273  0.43471654     0.13110
H257        H  0.09182320  0.61454164  0.35033988     0.13130
C258        C  0.00289272  0.60533555  0.33609149     0.62650
F259        F  0.05462521  0.71596358  0.45874537    -0.22510
F260        F  0.12412454  0.68751436  0.44765014    -0.19840
F261        F  0.07549170  0.63014805  0.46856716    -0.19520
F262        F  0.97834286  0.64739749  0.32384838    -0.19570
F263        F  0.97506031  0.56166523  0.34036379    -0.19890
F264        F  0.03603982  0.59005710  0.31628611    -0.22570
C265        C  0.00440306  0.09897182  0.06045631    -0.05400
C266        C  0.98445864  0.13435425  0.04018372     0.00520
C267        C  0.01146672  0.17048624  0.02410231    -0.08050
C268        C  0.05845560  0.16737428  0.02743733    -0.05430
C269        C  0.07856102  0.12972347  0.04638905     0.00510
C270        C  0.05144009  0.09630609  0.06399308    -0.07960
C271        C  0.07236256  0.05801760  0.08615766     0.62420
H272        H  0.98287360  0.07238663  0.07284598     0.13110
H273        H  0.08007010  0.19287506  0.01443688     0.13130
C274        C  0.99071830  0.21100613  0.00300112     0.62650
F275        F  0.03998301  0.03127278  0.10220121    -0.22510
F276        F  0.09875461  0.08686760  0.10540000    -0.19840
F277        F  0.09888469  0.01978387  0.07202508    -0.19520
F278        F  0.95993288  0.24377358  0.01759475    -0.19570
F279        F  0.96912316  0.18396362  0.48073612    -0.19890
F280        F  0.02288223  0.24378241  0.49055327    -0.22570
C281        C  0.20136996  0.95385312  0.47667798    -0.05400
C282        C  0.21473503  0.97532034  0.44977238     0.00520
C283        C  0.23164892  0.02835273  0.44843846    -0.08050
C284        C  0.22934100  0.06078710  0.47377343    -0.05430
C285        C  0.21070598  0.04106449  0.49987457     0.00510
C286        C  0.19985328  0.98559873  0.50200953    -0.07960
C287        C  0.18379875  0.95899096  0.02993614     0.62420
H288        H  0.18929066  0.91268974  0.47751187     0.13110
H289        H  0.23821298  0.10305373  0.47263217     0.13130
C290        C  0.24968126  0.05099915  0.42003429     0.62650
F291        F  0.20733820  0.91094425  0.03411229    -0.22510
F292        F  0.13842354  0.94785104  0.02748368    -0.19840
F293        F  0.19046578  0.99083540  0.05438332    -0.19520
F294        F  0.21596318  0.05233743  0.39919423    -0.19570
F295        F  0.28482184  0.01852422  0.41012141    -0.19890
F296        F  0.26565027  0.10291556  0.42355059    -0.22570
C297        C  0.85707069  0.03795578  0.43058265    -0.05400
C298        C  0.86299352  0.98263460  0.43628624     0.00520
C299        C  0.86241354  0.96372317  0.46547852    -0.08050
C300        C  0.86094094  0.00176873  0.48832543    -0.05430
C301        C  0.85973538  0.05744209  0.48260917     0.00510
C302        C  0.85499831  0.07600386  0.45348598    -0.07960
C303        C  0.84992417  0.13580171  0.44673092     0.62420
H304        H  0.85722044  0.05135304  0.40803432     0.13110
H305        H  0.86415996  0.98853796  0.01081655     0.13130
C306        C  0.86586184  0.90375836  0.47231086     0.62650
F307        F  0.84522757  0.14516159  0.41703301    -0.22510
F308        F  0.88731932  0.16319986  0.45636957    -0.19840
F309        F  0.81203301  0.15637295  0.46068108    -0.19520
F310        F  0.90645058  0.88280901  0.46223016    -0.19570
F311        F  0.83091149  0.87704696  0.45884032    -0.19890
F312        F  0.86322186  0.89390227  0.50206195    -0.22730
C313        C  0.01514434  0.88403189  0.41222466    -0.05400
C314        C  0.99444704  0.90180706  0.38635349     0.00520
C315        C  0.02138065  0.91790789  0.36238775    -0.08050
C316        C  0.06858265  0.91869724  0.36590242    -0.05430
C317        C  0.08898615  0.90408676  0.39248718     0.00510
C318        C  0.06206886  0.88458458  0.41577556    -0.07960
C319        C  0.08235381  0.86483490  0.44445399     0.62420
H320        H  0.99384357  0.87157168  0.43019531     0.13110
H321        H  0.08993426  0.93214672  0.34819331     0.13130
C322        C  0.00035955  0.93545753  0.33364588     0.62650
F323        F  0.05113754  0.83758511  0.46121074    -0.22510
F324        F  0.09717909  0.90818347  0.46070563    -0.19840
F325        F  0.11809058  0.82972373  0.43903835    -0.19520
F326        F  0.96999941  0.97748286  0.33840435    -0.19570
F327        F  0.97818808  0.89247841  0.32114897    -0.19890
F328        F  0.03244330  0.95285412  0.31390631    -0.22570
C329        C  0.52050811  0.59699426  0.31675727    -0.05400
C330        C  0.49579018  0.62570734  0.29557789     0.00520
C331        C  0.51847777  0.65560865  0.27385855    -0.08050
C332        C  0.56574099  0.65496650  0.27374471    -0.05430
C333        C  0.59054176  0.62470713  0.29420423     0.00510
C334        C  0.56797495  0.59567699  0.31630213    -0.07960
C335        C  0.59400997  0.56217376  0.33847750     0.62420
H336        H  0.50225187  0.57409683  0.33298269     0.13110
H337        H  0.58393593  0.67669853  0.25700477     0.13130
C338        C  0.49279385  0.68714079  0.25060510     0.62650
F339        F  0.56562448  0.53631055  0.35783634    -0.22510
F340        F  0.62204899  0.59520276  0.35442072    -0.19840
F341        F  0.61974057  0.52324674  0.32419433    -0.19520
F342        F  0.46577165  0.72615270  0.26377674    -0.19570
F343        F  0.46618386  0.65273362  0.23449438    -0.19890
F344        F  0.52150887  0.71255274  0.23133611    -0.22570
C345        C  0.73175627  0.48342803  0.20222946    -0.05400
C346        C  0.70371680  0.49862859  0.17877310     0.00520
C347        C  0.68483139  0.55166844  0.17823926    -0.08050
C348        C  0.68834188  0.58395273  0.20327910    -0.05430
C349        C  0.71159155  0.56604956  0.22818736     0.00510
C350        C  0.73633973  0.51678874  0.22706948    -0.07960
C351        C  0.76541683  0.49852239  0.25253453     0.62420
H352        H  0.74695831  0.44338107  0.20207673     0.13110
H353        H  0.67029451  0.62238167  0.20410003     0.13130
C354        C  0.65857658  0.57497058  0.15260081     0.62650
F355        F  0.78654801  0.44929860  0.24700331    -0.22510
F356        F  0.73931619  0.49327379  0.27741680    -0.19840
F357        F  0.79842119  0.53628514  0.25755667    -0.19520
F358        F  0.61327301  0.57779261  0.15970213    -0.19570
F359        F  0.66402637  0.54478918  0.12733989    -0.19890
F360        F  0.67337617  0.62663226  0.14673526    -0.22570
C361        C  0.37297131  0.44784938  0.22986059    -0.05400
C362        C  0.35524538  0.46841470  0.20369612     0.00520
C363        C  0.33565938  0.52080582  0.20324213    -0.08050
C364        C  0.33994987  0.55376704  0.22823781    -0.05430
C365        C  0.36311497  0.53523526  0.25318449     0.00510
C366        C  0.37668036  0.48014187  0.25486908    -0.07960
C367        C  0.39795702  0.45453818  0.28175194     0.62420
H368        H  0.38701861  0.40713683  0.23012042     0.13110
H369        H  0.32888831  0.59564150  0.22748792     0.13130
C370        C  0.31262654  0.54236497  0.17600220     0.62650
F371        F  0.37772010  0.40558432  0.28736949    -0.22510
F372        F  0.39302960  0.48628486  0.30649525    -0.19840
F373        F  0.44336309  0.44532929  0.27660255    -0.19520
F374        F  0.27756079  0.50883999  0.16854231    -0.19570
F375        F  0.34302995  0.54410239  0.15308903    -0.19890
F376        F  0.29505917  0.59392406  0.18027296    -0.22570
C377        C  0.50032409  0.41577136  0.11754924    -0.05400
C378        C  0.48042504  0.39917561  0.14383042     0.00520
C379        C  0.50780686  0.37781454  0.16659022    -0.08050
C380        C  0.55474632  0.37848051  0.16319264    -0.05430
C381        C  0.57477370  0.39848377  0.13774146     0.00510
C382        C  0.54747335  0.41564357  0.11404285    -0.07960
C383        C  0.56812558  0.43505210  0.08563179     0.62420
H384        H  0.47862117  0.43048919  0.10018185     0.13110
H385        H  0.57637910  0.36532531  0.18097291     0.13130
C386        C  0.48805269  0.35564247  0.19475361     0.62650
F387        F  0.53558508  0.45208050  0.06588989    -0.22510
F388        F  0.59259551  0.39336256  0.07281468    -0.19840
F389        F  0.59635704  0.47789494  0.09105456    -0.19520
F390        F  0.45115436  0.32396831  0.18877969    -0.19570
F391        F  0.47508567  0.39779556  0.21288161    -0.19890
F392        F  0.51917411  0.32388518  0.20965690    -0.22570
C393        C  0.55760952  0.15227657  0.16450954    -0.05400
C394        C  0.57797634  0.13372181  0.13858563     0.00520
C395        C  0.55073925  0.11709704  0.11490608    -0.08050
C396        C  0.50359860  0.11714849  0.11864692    -0.05430
C397        C  0.48352210  0.13278774  0.14520835     0.00510
C398        C  0.51067026  0.15216286  0.16830835    -0.07960
C399        C  0.49035183  0.17236494  0.19690787     0.62420
H400        H  0.57913493  0.16503932  0.18227582     0.13110
H401        H  0.48199675  0.10336832  0.10116454     0.13130
C402        C  0.57133517  0.09777896  0.08628860     0.62650
F403        F  0.52212837  0.19716960  0.21431911    -0.22510
F404        F  0.47290555  0.12968613  0.21252072    -0.19840
F405        F  0.45634493  0.20965833  0.19127095    -0.19520
F406        F  0.60122902  0.05548175  0.09145997    -0.19570
F407        F  0.59390875  0.13969665  0.07307896    -0.19890
F408        F  0.53889141  0.07993137  0.06695627    -0.22570
C409        C  0.72015635  0.96499568  0.20915474    -0.05400
C410        C  0.71320114  0.98698790  0.23713690     0.00520
C411        C  0.71039352  0.04380257  0.24070051    -0.08050
C412        C  0.70908689  0.07656641  0.21562930    -0.05430
C413        C  0.71053476  0.05397436  0.18752265     0.00510
C414        C  0.71890106  0.99793895  0.18405954    -0.07960
C415        C  0.72452948  0.97327820  0.15389555     0.62420
H416        H  0.72283597  0.92145904  0.20693426     0.13110
H417        H  0.70318440  0.11972896  0.21773139     0.13130
C418        C  0.70698784  0.06940568  0.27081849     0.62650
F419        F  0.73501007  0.91862618  0.15531214    -0.22510
F420        F  0.75909469  0.99883556  0.13932801    -0.19840
F421        F  0.68511594  0.97963575  0.13810480    -0.19520
F422        F  0.74133044  0.04951077  0.28835317    -0.19570
F423        F  0.66599495  0.05774255  0.28352083    -0.19890
F424        F  0.71073709  0.12507822  0.26951360    -0.22570
C425        C  0.34481480  0.02119351  0.24522861    -0.05400
C426        C  0.36424912  0.96988692  0.24088763     0.00520
C427        C  0.37470527  0.95194766  0.21226079    -0.08050
C428        C  0.36983482  0.98858148  0.18904045    -0.05430
C429        C  0.35612142  0.04241015  0.19388776     0.00510
C430        C  0.34045691  0.05822563  0.22200009    -0.07960
C431        C  0.32161196  0.11460650  0.22781808     0.62420
H432        H  0.33624919  0.03333245  0.26734083     0.13110
H433        H  0.38120804  0.97715630  0.16733586     0.13130
C434        C  0.39372292  0.89554778  0.20658869     0.62650
F435        F  0.31005771  0.12181855  0.25692687    -0.22510
F436        F  0.28314811  0.12289371  0.21132292    -0.19840
F437        F  0.35311947  0.15304105  0.22059776    -0.19520
F438        F  0.36617886  0.85752243  0.21929726    -0.19570
F439        F  0.43649787  0.89065885  0.21829153    -0.19890
F440        F  0.39659426  0.88431688  0.17696693    -0.22570
C441        C  0.51545780  0.87373077  0.27644580    -0.05400
C442        C  0.49398703  0.90544485  0.29787514     0.00520
C443        C  0.51983312  0.93625779  0.31756961    -0.08050
C444        C  0.56708058  0.93542657  0.31457625    -0.05430
C445        C  0.58830546  0.90552732  0.29225350     0.00510
C446        C  0.56242851  0.87364158  0.27305379    -0.07960
C447        C  0.58436325  0.84061004  0.24874541     0.62420
H448        H  0.49477455  0.85063781  0.26160770     0.13110
H449        H  0.58773221  0.95954142  0.32893501     0.13130
C450        C  0.49730198  0.97081027  0.34091295     0.62650
F451        F  0.55290343  0.81283130  0.23255790    -0.22510
F452        F  0.61436574  0.80342375  0.26061263    -0.19840
F453        F  0.60713638  0.87413400  0.22980682    -0.19520
F454        F  0.47190995  0.93848612  0.35905084    -0.19570
F455        F  0.46942548  0.00906589  0.32792652    -0.19890
F456        F  0.52847998  0.99753867  0.35792935    -0.22570
C457        C  0.38057257  0.93983602  0.76669217     0.03510
C458        C  0.42622101  0.94281416  0.77386161    -0.12640
C459        C  0.44449594  0.91054374  0.79602952     0.01010
C460        C  0.41630116  0.87696216  0.81229669    -0.11170
C461        C  0.36993089  0.87476652  0.80589538     0.03500
C462        C  0.35226639  0.90634431  0.78287943    -0.10590
H463        H  0.44825789  0.96784351  0.76082871     0.09090
H464        H  0.43090965  0.85053386  0.82873950     0.06620
H465        H  0.31698036  0.90393181  0.77704222     0.06470
C466        C  0.69922775  0.95008089  0.76079456     0.03510
C467        C  0.65321311  0.94775085  0.76742635    -0.12640
C468        C  0.63727617  0.91106174  0.78801262     0.01010
C469        C  0.66764822  0.87736839  0.80283332    -0.11170
C470        C  0.71393759  0.87828252  0.79618760     0.03500
C471        C  0.72962708  0.91437190  0.77471028    -0.10590
H472        H  0.62940976  0.97338721  0.75571474     0.09090
H473        H  0.65478846  0.84865958  0.81856290     0.06620
H474        H  0.76504200  0.91494434  0.76897163     0.06470
C475        C  0.69339625  0.08772738  0.66321565     0.03510
C476        C  0.72146816  0.12208004  0.64733116    -0.12640
C477        C  0.70286985  0.15825490  0.62667855     0.01010
C478        C  0.65583955  0.16058644  0.62271069    -0.11170
C479        C  0.62765318  0.12669131  0.63883080     0.03500
C480        C  0.64678740  0.09002803  0.65870699    -0.10590
H481        H  0.75741518  0.12129756  0.65144752     0.09090
H482        H  0.64108303  0.19095619  0.60846467     0.06620
H483        H  0.62501657  0.06485415  0.67184267     0.06470
C484        C  0.37088073  0.08264622  0.67202228     0.03510
C485        C  0.34076678  0.11669018  0.65680599    -0.12640
C486        C  0.35737241  0.15557146  0.63726385     0.01010
C487        C  0.40416803  0.16009326  0.63312324    -0.11170
C488        C  0.43423614  0.12673901  0.64850981     0.03500
C489        C  0.41736974  0.08732975  0.66722326    -0.10590
H490        H  0.30481300  0.11254960  0.65977392     0.09090
H491        H  0.41736816  0.19069208  0.61861295     0.06620
H492        H  0.44071780  0.06063343  0.67860520     0.06470
C493        C  0.36843229  0.43951737  0.67664971     0.03510
C494        C  0.33886632  0.40606490  0.66125717    -0.12640
C495        C  0.35513462  0.37405580  0.63785013     0.01010
C496        C  0.40144548  0.37411278  0.63110677    -0.11170
C497        C  0.43111105  0.40565302  0.64734551     0.03500
C498        C  0.41403751  0.44032230  0.66886736    -0.10590
H499        H  0.30386653  0.40413374  0.66785516     0.09090
H500        H  0.41494743  0.34724330  0.61441826     0.06620
H501        H  0.43692294  0.46577916  0.68095927     0.06470
C502        C  0.68752244  0.45554152  0.65885798     0.03510
C503        C  0.64096707  0.44733232  0.65652141    -0.12640
C504        C  0.62392852  0.40692937  0.63840805     0.01010
C505        C  0.65372461  0.37293971  0.62316077    -0.11170
C506        C  0.70050883  0.37916623  0.62597804     0.03500
C507        C  0.71738102  0.42036411  0.64401064    -0.10590
H508        H  0.61770383  0.47228167  0.66910634     0.09090
H509        H  0.64050941  0.34018766  0.61011199     0.06620
H510        H  0.75342464  0.42529532  0.64629019     0.06470
C511        C  0.38102860  0.57607356  0.77368242     0.03510
C512        C  0.35264929  0.61302789  0.78836295    -0.12640
C513        C  0.37101855  0.65210719  0.80712678     0.01010
C514        C  0.41801714  0.65480414  0.81049119    -0.11170
C515        C  0.44642679  0.61968934  0.79480996     0.03500
C516        C  0.42786616  0.58014049  0.77682082    -0.10590
H517        H  0.31648836  0.61095480  0.78541963     0.09090
H518        H  0.43260884  0.68571535  0.82421714     0.06620
H519        H  0.45010192  0.55344457  0.76448301     0.06470
C520        C  0.69993618  0.59332226  0.75610295     0.03510
C521        C  0.65527913  0.58967453  0.76573541    -0.12640
C522        C  0.63965936  0.62025636  0.78940673     0.01010
C523        C  0.66952266  0.65321281  0.80460811    -0.11170
C524        C  0.71484088  0.65694524  0.79568082     0.03500
C525        C  0.72977512  0.62730850  0.77099473    -0.10590
H526        H  0.63167484  0.56528201  0.75354748     0.09090
H527        H  0.65669048  0.67827112  0.82229400     0.06620
H528        H  0.76380762  0.63188238  0.76291271     0.06470
C529        C  0.87963565  0.94756435  0.91232759     0.03510
C530        C  0.85114633  0.91312727  0.89683582    -0.12640
C531        C  0.86927480  0.87651493  0.87620077     0.01010
C532        C  0.91622936  0.87418902  0.87164253    -0.11170
C533        C  0.94475612  0.90876454  0.88704887     0.03500
C534        C  0.92604215  0.94588917  0.90691887    -0.10590
H535        H  0.81526638  0.91417188  0.90125114     0.09090
H536        H  0.93068459  0.84350696  0.85740263     0.06620
H537        H  0.94807179  0.97163008  0.91952436     0.06470
C538        C  0.20119018  0.94532113  0.92339597     0.03510
C539        C  0.23089569  0.91000913  0.90873517    -0.12640
C540        C  0.21476776  0.87622396  0.88637597     0.01010
C541        C  0.16831794  0.87634191  0.87999291    -0.11170
C542        C  0.13838893  0.90992023  0.89557410     0.03500
C543        C  0.15543824  0.94633277  0.91598145    -0.10590
H544        H  0.26604162  0.90821780  0.91507889     0.09090
H545        H  0.15503585  0.84821018  0.86410380     0.06620
H546        H  0.13252658  0.97338751  0.92755182     0.06470
C547        C  0.87394399  0.09393685  0.50639155     0.03510
C548        C  0.84312639  0.12582813  0.52241052    -0.12640
C549        C  0.85854396  0.15953143  0.54506543     0.01010
C550        C  0.90487824  0.16101349  0.55134906    -0.11170
C551        C  0.93561748  0.13034459  0.53490738     0.03500
C552        C  0.92002350  0.09628830  0.51284746    -0.10590
H553        H  0.80754006  0.12433495  0.51728956     0.09090
H554        H  0.91740120  0.18766283  0.56823213     0.06620
H555        H  0.94396143  0.07221034  0.50026249     0.06470
C556        C  0.19313551  0.08092092  0.52133004     0.03510
C557        C  0.14640021  0.08491255  0.52552564    -0.12640
C558        C  0.12793063  0.12284424  0.54493167     0.01010
C559        C  0.15631480  0.15735212  0.56029381    -0.11170
C560        C  0.20321087  0.15469640  0.55591639     0.03500
C561        C  0.22152020  0.11671633  0.53608551    -0.10590
H562        H  0.12416999  0.05909746  0.51313389     0.09090
H563        H  0.14166673  0.18755221  0.57479115     0.06620
H564        H  0.25756514  0.11459314  0.53235449     0.06470
C565        C  0.88108267  0.58308596  0.91185328     0.03510
C566        C  0.85197860  0.61746093  0.89611957    -0.12640
C567        C  0.86971188  0.65584563  0.87667139     0.01010
C568        C  0.91664468  0.66048735  0.87378089    -0.11170
C569        C  0.94579102  0.62675868  0.88973025     0.03500
C570        C  0.92774213  0.58835851  0.90871400    -0.10590
H571        H  0.81588628  0.61461754  0.89920386     0.09090
H572        H  0.93040599  0.69245704  0.86045916     0.06620
H573        H  0.95023846  0.56344588  0.92185905     0.06470
C574        C  0.20168387  0.58461362  0.92181924     0.03510
C575        C  0.15523369  0.59141301  0.91738203    -0.12640
C576        C  0.13864710  0.63104663  0.89835694     0.01010
C577        C  0.16879842  0.66293761  0.88276143    -0.11170
C578        C  0.21548182  0.65748060  0.88735532     0.03500
C579        C  0.23188804  0.61872505  0.90736832    -0.10590
H580        H  0.13175837  0.56631988  0.92922944     0.09090
H581        H  0.15570253  0.69357521  0.86798190     0.06620
H582        H  0.26775947  0.61444050  0.91128023     0.06470
C583        C  0.87205105  0.44569500  0.50936103     0.03510
C584        C  0.84195797  0.41153933  0.52377521    -0.12640
C585        C  0.85773078  0.37674996  0.54599914     0.01010
C586        C  0.90404448  0.37530285  0.55282855    -0.11170
C587        C  0.93415353  0.40936724  0.53847524     0.03500
C588        C  0.91768603  0.44482123  0.51705201    -0.10590
H589        H  0.80678437  0.41163195  0.51746724     0.09090
H590        H  0.91696649  0.34556057  0.56812425     0.06620
H591        H  0.94099941  0.47021169  0.50523262     0.06470
C592        C  0.19512458  0.44727988  0.51824209     0.03510
C593        C  0.14861423  0.44922253  0.52333730    -0.12640
C594        C  0.12844377  0.41244568  0.54230741     0.01010
C595        C  0.15583768  0.37793097  0.55919202    -0.11170
C596        C  0.20292890  0.37718966  0.55525951     0.03500
C597        C  0.22225853  0.41112260  0.53410913    -0.10590
H598        H  0.12767807  0.47708683  0.51089057     0.09090
H599        H  0.14030374  0.34943426  0.57395961     0.06620
H600        H  0.25803866  0.40857808  0.52948512     0.06470
O601        O  0.23457502  0.71159948  0.84659361    -0.74050
O602        O  0.30552200  0.81863666  0.80881524    -0.74080
O603        O  0.30581123  0.70915152  0.80940427    -0.74140
O604        O  0.23411663  0.81980655  0.84600301    -0.74180
O605        O  0.28101354  0.82025899  0.88407927    -0.74120
O606        O  0.35340129  0.71023170  0.84713558    -0.74090
O607        O  0.35263348  0.81892296  0.84677774    -0.74070
O608        O  0.28188383  0.71068580  0.88448620    -0.74140
Ni609      Ni  0.26843594  0.76479480  0.82632815     1.25410
Ni610      Ni  0.31891182  0.76503146  0.86700278     1.25360
C611        C  0.24590578  0.69440486  0.87197714     0.88130
C612        C  0.34109858  0.83594894  0.82136993     0.88060
C613        C  0.34176029  0.69205360  0.82204809     0.88090
C614        C  0.24508362  0.83734345  0.87134083     0.88260
O615        O  0.78043763  0.71215081  0.79815148    -0.74050
O616        O  0.85164084  0.82012830  0.83570046    -0.74080
O617        O  0.85163602  0.71157045  0.83580385    -0.74140
O618        O  0.78029244  0.82198259  0.79825234    -0.74180
O619        O  0.73313062  0.82171646  0.83626665    -0.74120
O620        O  0.80404554  0.71182234  0.87363114    -0.74090
O621        O  0.80414430  0.82129274  0.87356328    -0.74070
O622        O  0.73329479  0.71315230  0.83615389    -0.74140
Ni623      Ni  0.81766540  0.76640420  0.81558374     1.25410
Ni624      Ni  0.76702635  0.76703129  0.85624473     1.25360
C625        C  0.74463631  0.69549115  0.81078710     0.88130
C626        C  0.84003176  0.83781941  0.86099595     0.88060
C627        C  0.84003325  0.69438982  0.86113308     0.88090
C628        C  0.74436861  0.83931258  0.81099326     0.88260
O629        O  0.33746085  0.31902647  0.59683945    -0.74050
O630        O  0.26819557  0.21009986  0.55886167    -0.74080
O631        O  0.26743896  0.31955381  0.55879669    -0.74140
O632        O  0.33855187  0.21077619  0.59668372    -0.74180
O633        O  0.29040736  0.21022691  0.63420539    -0.74120
O634        O  0.21896501  0.32003177  0.59612853    -0.74090
O635        O  0.21984076  0.21138698  0.59627536    -0.74070
O636        O  0.28936718  0.31981953  0.63436470    -0.74140
Ni637      Ni  0.30452524  0.26485265  0.57644024     1.25410
Ni638      Ni  0.25292312  0.26537496  0.61660991     1.25360
C639        C  0.32549996  0.33639261  0.62214706     0.88130
C640        C  0.23213105  0.19350163  0.57116771     0.88060
C641        C  0.23125263  0.33728749  0.57095631     0.88090
C642        C  0.32686898  0.19342832  0.62188974     0.88260
O643        O  0.79136344  0.32281572  0.54835787    -0.74050
O644        O  0.72005055  0.21453359  0.58590525    -0.74080
O645        O  0.71964791  0.32308877  0.58564042    -0.74140
O646        O  0.79144977  0.21341523  0.54832923    -0.74180
O647        O  0.83862775  0.21363972  0.58626618    -0.74120
O648        O  0.76676483  0.32354844  0.62363856    -0.74090
O649        O  0.76748696  0.21392400  0.62371483    -0.74070
O650        O  0.83822055  0.32183675  0.58645913    -0.74140
Ni651      Ni  0.75394709  0.26848042  0.56568758     1.25410
Ni652      Ni  0.80435580  0.26820964  0.60639842     1.25360
C653        C  0.82724935  0.33912563  0.56103361     0.88130
C654        C  0.73174729  0.19703978  0.61121518     0.88060
C655        C  0.73085266  0.34064760  0.61092227     0.88090
C656        C  0.82760575  0.19658977  0.56081195     0.88260
C657        C  0.00839452  0.38743029  0.51741164    -0.05400
C658        C  0.98367661  0.40353898  0.54215723     0.00520
C659        C  0.00674699  0.41867720  0.56797423    -0.08050
C660        C  0.05427712  0.41976386  0.56747678    -0.05430
C661        C  0.07876031  0.40670463  0.54207594     0.00510
C662        C  0.05560154  0.38872497  0.51678732    -0.07960
C663        C  0.08011283  0.37170328  0.98892524     0.62420
H664        H  0.99005543  0.37569923  0.49798827     0.13110
H665        H  0.07275741  0.43217977  0.58669480     0.13130
C666        C  0.98148350  0.43499852  0.59556041     0.62650
F667        F  0.05193364  0.34492740  0.96984407    -0.22510
F668        F  0.11577457  0.33722086  0.99546823    -0.19840
F669        F  0.09596378  0.41669302  0.97455655    -0.19520
F670        F  0.95892326  0.39103983  0.60663898    -0.19570
F671        F  0.95079736  0.47600292  0.58940688    -0.19890
F672        F  0.01032165  0.45329308  0.61706929    -0.22570
C673        C  0.20094771  0.45654183  0.96510790    -0.05400
C674        C  0.21254084  0.47673604  0.99266086     0.00520
C675        C  0.23231099  0.52817152  0.99500884    -0.08050
C676        C  0.23411411  0.56101412  0.96987331    -0.05430
C677        C  0.21681480  0.54314547  0.94301370     0.00510
C678        C  0.20341413  0.48866662  0.94002346    -0.07960
C679        C  0.18836786  0.46388054  0.91135014     0.62420
H680        H  0.18703652  0.41633945  0.96347442     0.13110
H681        H  0.24494471  0.60250687  0.97166742     0.13130
C682        C  0.24902979  0.54891560  0.52416601     0.62650
F683        F  0.21042583  0.41479288  0.90726488    -0.22510
F684        F  0.19783721  0.49612390  0.88749295    -0.19840
F685        F  0.14246248  0.45514405  0.91238010    -0.19520
F686        F  0.28163155  0.51380546  0.53495533    -0.19570
F687        F  0.21369590  0.55234111  0.54385399    -0.19890
F688        F  0.26787787  0.59957191  0.52163160    -0.22570
C689        C  0.85151154  0.56726836  0.96152787    -0.05400
C690        C  0.86432318  0.54548272  0.93436099     0.00520
C691        C  0.86905077  0.48878676  0.93107766    -0.08050
C692        C  0.86602378  0.45605053  0.95608098    -0.05430
C693        C  0.85856719  0.47861463  0.98383578     0.00510
C694        C  0.84861648  0.53443051  0.98655679    -0.07960
C695        C  0.83715309  0.55910282  0.51604851     0.62420
H696        H  0.84743115  0.61071981  0.96345765     0.13110
H697        H  0.87318567  0.41306403  0.95452280     0.13130
C698        C  0.87878222  0.46336604  0.90147193     0.62650
F699        F  0.82612438  0.61350336  0.51375357    -0.22510
F700        F  0.87352184  0.55378780  0.53474612    -0.19840
F701        F  0.80063618  0.53278685  0.52793224    -0.19520
F702        F  0.92133460  0.47707855  0.89198455    -0.19570
F703        F  0.84724985  0.48159287  0.88139732    -0.19890
F704        F  0.87672404  0.40751974  0.90255675    -0.22570
C705        C  0.01490808  0.65055833  0.91609781    -0.05400
C706        C  0.99509380  0.63492999  0.88963211     0.00520
C707        C  0.02273670  0.62308741  0.86508725    -0.08050
C708        C  0.06982838  0.62552047  0.86838121    -0.05430
C709        C  0.08951090  0.63908190  0.89524440     0.00510
C710        C  0.06170973  0.65398619  0.91923967    -0.07960
C711        C  0.07959080  0.67200412  0.94875822     0.62420
H712        H  0.99337763  0.65960276  0.93471650     0.13110
H713        H  0.09182314  0.61454167  0.85033987     0.13130
C714        C  0.00289267  0.60533562  0.83609145     0.62650
F715        F  0.05462504  0.71596348  0.95874541    -0.22510
F716        F  0.12412440  0.68751443  0.94765014    -0.19840
F717        F  0.07549165  0.63014797  0.96856714    -0.19520
F718        F  0.97834282  0.64739757  0.82384835    -0.19570
F719        F  0.97506024  0.56166530  0.84036374    -0.19890
F720        F  0.03603977  0.59005717  0.81628609    -0.22570
C721        C  0.00440314  0.09897180  0.56045615    -0.05400
C722        C  0.98445873  0.13435422  0.54018355     0.00520
C723        C  0.01146681  0.17048627  0.52410218    -0.08050
C724        C  0.05845568  0.16737436  0.52743723    -0.05430
C725        C  0.07856110  0.12972356  0.54638896     0.00510
C726        C  0.05144016  0.09630612  0.56399295    -0.07960
C727        C  0.07236262  0.05801762  0.58615754     0.62420
H728        H  0.98287368  0.07238657  0.57284580     0.13110
H729        H  0.08007019  0.19287518  0.51443681     0.13130
C730        C  0.99071839  0.21100617  0.50300100     0.62650
F731        F  0.03998306  0.03127276  0.60220106    -0.22510
F732        F  0.09875462  0.08686763  0.60539990    -0.19840
F733        F  0.09888480  0.01978392  0.57202497    -0.19520
F734        F  0.95993294  0.24377359  0.51759462    -0.19570
F735        F  0.96912304  0.18396356  0.98073626    -0.19890
F736        F  0.02288214  0.24378234  0.99055338    -0.22570
C737        C  0.20136988  0.95385309  0.97667799    -0.05400
C738        C  0.21473494  0.97532035  0.94977239     0.00520
C739        C  0.23164882  0.02835274  0.94843849    -0.08050
C740        C  0.22934088  0.06078708  0.97377347    -0.05430
C741        C  0.21070586  0.04106444  0.99987460     0.00510
C742        C  0.19985318  0.98559867  0.00200954    -0.07960
C743        C  0.18379885  0.95899105  0.52993613     0.62420
H744        H  0.18929059  0.91268970  0.97751186     0.13110
H745        H  0.23821285  0.10305372  0.97263222     0.13130
C746        C  0.24968114  0.05099920  0.92003433     0.62650
F747        F  0.20733831  0.91094436  0.53411230    -0.22510
F748        F  0.13842365  0.94785111  0.52748367    -0.19840
F749        F  0.19046587  0.99083553  0.55438330    -0.19520
F750        F  0.21596305  0.05233750  0.89919427    -0.19570
F751        F  0.28482172  0.01852430  0.91012143    -0.19890
F752        F  0.26565014  0.10291562  0.92355064    -0.22570
C753        C  0.85707055  0.03795580  0.93058286    -0.05400
C754        C  0.86299338  0.98263461  0.93628645     0.00520
C755        C  0.86241341  0.96372319  0.96547873    -0.08050
C756        C  0.86094082  0.00176875  0.98832564    -0.05430
C757        C  0.85973527  0.05744211  0.98260938     0.00510
C758        C  0.85499819  0.07600387  0.95348619    -0.07960
C759        C  0.84992404  0.13580172  0.94673113     0.62420
H760        H  0.85722029  0.05135305  0.90803453     0.13110
H761        H  0.86416007  0.98853794  0.51081634     0.13130
C762        C  0.86586171  0.90375838  0.97231108     0.62650
F763        F  0.84522744  0.14516160  0.91703322    -0.22510
F764        F  0.88731919  0.16319988  0.95636977    -0.19840
F765        F  0.81203288  0.15637297  0.96068129    -0.19520
F766        F  0.90645044  0.88280902  0.96223036    -0.19570
F767        F  0.83091134  0.87704698  0.95884054    -0.19890
F768        F  0.86322174  0.89390229  0.00206216    -0.22730
C769        C  0.01514424  0.88403200  0.91222479    -0.05400
C770        C  0.99444689  0.90180716  0.88635364     0.00520
C771        C  0.02138047  0.91790797  0.86238787    -0.08050
C772        C  0.06858247  0.91869729  0.86590250    -0.05430
C773        C  0.08898602  0.90408681  0.89248725     0.00510
C774        C  0.06206877  0.88458466  0.91577566    -0.07960
C775        C  0.08235377  0.86483498  0.94445407     0.62420
H776        H  0.99384351  0.87157180  0.93019546     0.13110
H777        H  0.08993405  0.93214676  0.84819338     0.13130
C778        C  0.00035931  0.93545760  0.83364602     0.62650
F779        F  0.05113753  0.83758517  0.96121084    -0.22510
F780        F  0.09717905  0.90818356  0.96070570    -0.19840
F781        F  0.11809055  0.82972383  0.93903841    -0.19520
F782        F  0.96999917  0.97748293  0.83840450    -0.19570
F783        F  0.97818783  0.89247848  0.82114912    -0.19890
F784        F  0.03244303  0.95285420  0.81390643    -0.22570
C785        C  0.52050815  0.59699471  0.81675692    -0.05400
C786        C  0.49579004  0.62570776  0.79557761     0.00520
C787        C  0.51847743  0.65560914  0.77385822    -0.08050
C788        C  0.56574066  0.65496716  0.77374426    -0.05430
C789        C  0.59054161  0.62470787  0.79420372     0.00510
C790        C  0.56797498  0.59567760  0.81630166    -0.07960
C791        C  0.59401020  0.56217438  0.83847694     0.62420
H792        H  0.50225206  0.57409720  0.83298237     0.13110
H793        H  0.58393545  0.67669926  0.75700428     0.13130
C794        C  0.49279329  0.68714118  0.75060482     0.62650
F795        F  0.56562486  0.53631093  0.85783578    -0.22510
F796        F  0.62204917  0.59520342  0.85442017    -0.19840
F797        F  0.61974086  0.52324754  0.82419367    -0.19520
F798        F  0.46577112  0.72615304  0.76377654    -0.19570
F799        F  0.46618325  0.65273393  0.73449420    -0.19890
F800        F  0.52150812  0.71255319  0.73133574    -0.22570
C801        C  0.73175636  0.48342773  0.70222977    -0.05400
C802        C  0.70371749  0.49862838  0.67877315     0.00520
C803        C  0.68483261  0.55166847  0.67823895    -0.08050
C804        C  0.68834293  0.58395301  0.70327870    -0.05430
C805        C  0.71159193  0.56604984  0.72818722     0.00510
C806        C  0.73633966  0.51678867  0.72706972    -0.07960
C807        C  0.76541607  0.49852222  0.75253508     0.62420
H808        H  0.74695802  0.44338052  0.70207730     0.13110
H809        H  0.67029588  0.62238224  0.70409935     0.13130
C810        C  0.65857852  0.57497057  0.65260019     0.62650
F811        F  0.78654691  0.44929809  0.74700420    -0.22510
F812        F  0.73931485  0.49327425  0.77741713    -0.19840
F813        F  0.79842067  0.53628458  0.75755739    -0.19520
F814        F  0.61327485  0.57779346  0.65970115    -0.19570
F815        F  0.66402841  0.54478862  0.62733947    -0.19890
F816        F  0.67337883  0.62663189  0.64673448    -0.22570
C817        C  0.37297129  0.44784922  0.72986078    -0.05400
C818        C  0.35524545  0.46841444  0.70369627     0.00520
C819        C  0.33565942  0.52080555  0.70324220    -0.08050
C820        C  0.33994980  0.55376685  0.72823785    -0.05430
C821        C  0.36311481  0.53523518  0.75318458     0.00510
C822        C  0.37668022  0.48014180  0.75486925    -0.07960
C823        C  0.39795679  0.45453824  0.78175218     0.62420
H824        H  0.38701862  0.40713668  0.73012068     0.13110
H825        H  0.32888822  0.59564130  0.72748790     0.13130
C826        C  0.31262668  0.54236460  0.67600221     0.62650
F827        F  0.37771982  0.40558444  0.78736978    -0.22510
F828        F  0.39302934  0.48628507  0.80649543    -0.19840
F829        F  0.44336286  0.44532927  0.77660285    -0.19520
F830        F  0.27756096  0.50883960  0.66854230    -0.19570
F831        F  0.34303018  0.54410195  0.65308908    -0.19890
F832        F  0.29505930  0.59392371  0.68027289    -0.22570
C833        C  0.50032436  0.41577145  0.61754953    -0.05400
C834        C  0.48042533  0.39917546  0.64383067     0.00520
C835        C  0.50780719  0.37781440  0.66659046    -0.08050
C836        C  0.55474666  0.37848052  0.66319289    -0.05430
C837        C  0.57477401  0.39848394  0.63774172     0.00510
C838        C  0.54747363  0.41564384  0.61404316    -0.07960
C839        C  0.56812584  0.43505268  0.58563216     0.62420
H840        H  0.47862143  0.43048932  0.60018217     0.13110
H841        H  0.57637946  0.36532526  0.68097313     0.13130
C842        C  0.48805305  0.35564215  0.69475381     0.62650
F843        F  0.53558532  0.45208110  0.56589027    -0.22510
F844        F  0.59259591  0.39336334  0.57281496    -0.19840
F845        F  0.59635716  0.47789559  0.59105505    -0.19520
F846        F  0.45115484  0.32396783  0.68877983    -0.19570
F847        F  0.47508585  0.39779511  0.71288185    -0.19890
F848        F  0.51917455  0.32388495  0.70965709    -0.22570
C849        C  0.55760960  0.15227644  0.66450949    -0.05400
C850        C  0.57797640  0.13372167  0.63858557     0.00520
C851        C  0.55073930  0.11709691  0.61490603    -0.08050
C852        C  0.50359866  0.11714837  0.61864687    -0.05430
C853        C  0.48352217  0.13278762  0.64520831     0.00510
C854        C  0.51067034  0.15216273  0.66830830    -0.07960
C855        C  0.49035193  0.17236480  0.69690783     0.62420
H856        H  0.57913502  0.16503917  0.68227576     0.13110
H857        H  0.48199679  0.10336822  0.60116450     0.13130
C858        C  0.57133520  0.09777882  0.58628854     0.62650
F859        F  0.52212848  0.19716949  0.71431906    -0.22510
F860        F  0.47290569  0.12968598  0.71252069    -0.19840
F861        F  0.45634500  0.20965815  0.69127092    -0.19520
F862        F  0.60122904  0.05548160  0.59145990    -0.19570
F863        F  0.59390878  0.13969651  0.57307889    -0.19890
F864        F  0.53889142  0.07993125  0.56695621    -0.22570
C865        C  0.72015627  0.96499563  0.70915482    -0.05400
C866        C  0.71320103  0.98698795  0.73713695     0.00520
C867        C  0.71039344  0.04380263  0.74070051    -0.08050
C868        C  0.70908685  0.07656638  0.71562926    -0.05430
C869        C  0.71053475  0.05397422  0.68752264     0.00510
C870        C  0.71890103  0.99793880  0.68405959    -0.07960
C871        C  0.72452948  0.97327794  0.65389563     0.62420
H872        H  0.72283589  0.92145898  0.70693439     0.13110
H873        H  0.70318438  0.11972895  0.71773130     0.13130
C874        C  0.70698772  0.06940585  0.77081846     0.62650
F875        F  0.73501004  0.91862591  0.65531228    -0.22510
F876        F  0.75909472  0.99883522  0.63932808    -0.19840
F877        F  0.68511596  0.97963545  0.63810486    -0.19520
F878        F  0.74133031  0.04951101  0.78835317    -0.19570
F879        F  0.66599482  0.05774275  0.78352079    -0.19890
F880        F  0.71073697  0.12507838  0.76951351    -0.22570
C881        C  0.34481474  0.02119347  0.74522856    -0.05400
C882        C  0.36424906  0.96988688  0.74088759     0.00520
C883        C  0.37470525  0.95194762  0.71226075    -0.08050
C884        C  0.36983484  0.98858143  0.68904042    -0.05430
C885        C  0.35612143  0.04241010  0.69388772     0.00510
C886        C  0.34045689  0.05822559  0.72200004    -0.07960
C887        C  0.32161193  0.11460646  0.72781801     0.62420
H888        H  0.33624910  0.03333241  0.76734077     0.13110
H889        H  0.38120809  0.97715624  0.66733583     0.13130
C890        C  0.39372291  0.89554774  0.70658867     0.62650
F891        F  0.31005764  0.12181852  0.75692679    -0.22510
F892        F  0.28314810  0.12289366  0.71132283    -0.19840
F893        F  0.35311944  0.15304101  0.72059771    -0.19520
F894        F  0.36617885  0.85752239  0.71929724    -0.19570
F895        F  0.43649786  0.89065882  0.71829152    -0.19890
F896        F  0.39659427  0.88431682  0.67696691    -0.22570
C897        C  0.51545774  0.87373081  0.77644583    -0.05400
C898        C  0.49398692  0.90544485  0.79787517     0.00520
C899        C  0.51983297  0.93625780  0.81756966    -0.08050
C900        C  0.56708043  0.93542663  0.81457632    -0.05430
C901        C  0.58830536  0.90552741  0.79225357     0.00510
C902        C  0.56242845  0.87364166  0.77305385    -0.07960
C903        C  0.58436325  0.84061014  0.74874548     0.62420
H904        H  0.49477451  0.85063783  0.76160771     0.13110
H905        H  0.58773203  0.95954148  0.82893510     0.13130
C906        C  0.49730178  0.97081023  0.84091301     0.62650
F907        F  0.55290347  0.81283134  0.73255796    -0.22510
F908        F  0.61436577  0.80342391  0.76061270    -0.19840
F909        F  0.60713634  0.87413413  0.72980689    -0.19520
F910        F  0.47190975  0.93848603  0.85905087    -0.19570
F911        F  0.46942527  0.00906584  0.82792657    -0.19890
F912        F  0.52847975  0.99753864  0.85792943    -0.22570
loop_ 
_geom_bond_atom_site_label_1 
_geom_bond_atom_site_label_2 
_geom_bond_distance 
_geom_bond_site_symmetry_2 
_ccdc_geom_bond_type 
C1            C2   1.397       .  A
C1            C6   1.400       .  A
C1          C426   1.474       .  S
C2            C3   1.396       .  A
C2            H7   1.085       .  S
C3            C4   1.401       .  A
C3          C442   1.475       .  S
C4            C5   1.409       .  A
C4            H8   1.084       .  S
C5            C6   1.409       .  A
C5          C156   1.476       .  S
C6            H9   1.084       .  S
C10          C11   1.401       .  A
C10          C15   1.407       .  A
C10         C410   1.479       .  S
C11          C12   1.395       .  A
C11          H16   1.085       .  S
C12          C13   1.396       .  A
C12         C445   1.474       .  S
C13          C14   1.407       .  A
C13          H17   1.084       .  S
C14          C15   1.411       .  A
C14         C172   1.477       .  S
C15          H18   1.083       .  S
C19          C20   1.401       .  A
C19          C24   1.399       .  A
C19         C413   1.477       .  S
C20          C21   1.409       .  A
C20          H25   1.084       .  S
C21          C22   1.408       .  A
C21         C198   1.476       .  S
C22          C23   1.402       .  A
C22          H26   1.083       .  S
C23          C24   1.400       .  A
C23         C394   1.482       .  S
C24          H27   1.085       .  S
C28          C29   1.405       .  A
C28          C33   1.403       .  A
C28         C429   1.482       .  S
C29          C30   1.407       .  A
C29          H34   1.082       .  S
C30          C31   1.408       .  A
C30         C186   1.473       .  S
C31          C32   1.398       .  A
C31          H35   1.084       .  S
C32          C33   1.396       .  A
C32         C397   1.480       .  S
C33          H36   1.084       .  S
C37          C38   1.404       .  A
C37          C42   1.400       .  A
C37         C362   1.477       .  S
C38          C39   1.411       .  A
C38          H43   1.083       .  S
C39          C40   1.408       .  A
C39         C183   1.477       .  S
C40          C41   1.398       .  A
C40          H44   1.084       .  S
C41          C42   1.395       .  A
C41         C378   1.479       .  S
C42          H45   1.084       .  S
C46          C47   1.404       .  A
C46          C51   1.407       .  A
C46         C346   1.486       .  S
C47          C48   1.398       .  A
C47          H52   1.084       .  S
C48          C49   1.397       .  A
C48         C381   1.477       .  S
C49          C50   1.405       .  A
C49          H53   1.084       .  S
C50          C51   1.408       .  A
C50         C199   1.471       .  S
C51          H54   1.084       .  S
C55          C56   1.404       .  A
C55          C60   1.403       .  A
C55         C365   1.482       .  S
C56          C57   1.408       .  A
C56          H61   1.084       .  S
C57          C58   1.406       .  A
C57         C157   1.473       .  S
C58          C59   1.398       .  A
C58          H62   1.084       .  S
C59          C60   1.397       .  A
C59         C330   1.475       .  S
C60          H63   1.084       .  S
C64          C65   1.400       .  A
C64          C69   1.406       .  A
C64         C349   1.481       .  S
C65          C66   1.395       .  A
C65          H70   1.085       .  S
C66          C67   1.398       .  A
C66         C333   1.476       .  S
C67          C68   1.409       .  A
C67          H71   1.084       .  S
C68          C69   1.412       .  A
C68         C169   1.481       .  S
C69          H72   1.083       .  S
C73          C74   1.401       .  A
C73          C78   1.399       .  A
C73         C298   1.477       .  S
C74          C75   1.408       .  A
C74          H79   1.084       .  S
C75          C76   1.409       .  A
C75         C170   1.475       .  S
C76          C77   1.402       .  A
C76          H80   1.083       .  S
C77          C78   1.400       .  A
C77         C314   1.483       .  S
C78          H81   1.085       .  S
C82          C83   1.402       .  A
C82          C87   1.400       .  A
C82         C282   1.474       .  S
C83          C84   1.408       .  A
C83          H88   1.083       .  S
C84          C85   1.410       .  A
C84         C158   1.476       .  S
C85          C86   1.401       .  A
C85          H89   1.084       .  S
C86          C87   1.396       .  A
C86         C317   1.482       .  S
C87          H90   1.084       .  S
C91          C92   1.404       .  A
C91          C96   1.402       .  A
C91         C757   1.478   1_554  S
C92          C93   1.410       .  A
C92          H97   1.083       .  S
C93          C94   1.406       .  A
C93         C200   1.475       .  S
C94          C95   1.396       .  A
C94          H98   1.084       .  S
C95          C96   1.397       .  A
C95         C266   1.475       .  S
C96          H99   1.085       .  S
C100        C101   1.402       .  A
C100        C105   1.404       .  A
C100        C741   1.479   1_554  S
C101        C102   1.396       .  A
C101        H106   1.085       .  S
C102        C103   1.397       .  A
C102        C269   1.474       .  S
C103        C104   1.407       .  A
C103        H107   1.084       .  S
C104        C105   1.408       .  A
C104        C184   1.472       .  S
C105        H108   1.084       .  S
C109        C110   1.403       .  A
C109        C114   1.400       .  A
C109        C234   1.478       .  S
C110        C111   1.409       .  A
C110        H115   1.084       .  S
C111        C112   1.405       .  A
C111        C171   1.473       .  S
C112        C113   1.400       .  A
C112        H116   1.083       .  S
C113        C114   1.399       .  A
C113        C250   1.480       .  S
C114        H117   1.085       .  S
C118        C119   1.402       .  A
C118        C123   1.405       .  A
C118        C221   1.478       .  S
C119        C120   1.396       .  A
C119        H124   1.085       .  S
C120        C121   1.397       .  A
C120        C253   1.476       .  S
C121        C122   1.406       .  A
C121        H125   1.084       .  S
C122        C123   1.408       .  A
C122        C155   1.472       .  S
C123        H126   1.084       .  S
C127        C128   1.403       .  A
C127        C132   1.400       .  A
C127        C693   1.476   1_554  S
C128        C129   1.408       .  A
C128        H133   1.083       .  S
C129        C130   1.410       .  A
C129        C197   1.477       .  S
C130        C131   1.400       .  A
C130        H134   1.082       .  S
C131        C132   1.399       .  A
C131        C202   1.485       .  S
C132        H135   1.085       .  S
C136        C137   1.400       .  A
C136        C141   1.399       .  A
C136        C674   1.475   1_554  S
C137        C138   1.398       .  A
C137        H142   1.084       .  S
C138        C139   1.403       .  A
C138        C205   1.484       .  S
C139        C140   1.409       .  A
C139        H143   1.084       .  S
C140        C141   1.408       .  A
C140        C185   1.475       .  S
C141        H144   1.083       .  S
O145       Ni153   1.907       .  S
O145        C155   1.280       .  A
O146       Ni153   1.915       .  S
O146        C156   1.281       .  A
O147       Ni153   1.917       .  S
O147        C157   1.281       .  A
O148       Ni153   1.912       .  S
O148        C158   1.281       .  A
O149       Ni154   1.922       .  S
O149        C158   1.282       .  A
O150       Ni154   1.915       .  S
O150        C157   1.281       .  A
O151       Ni154   1.916       .  S
O151        C156   1.281       .  A
O152       Ni154   1.923       .  S
O152        C155   1.282       .  A
Ni153      Ni154   2.389       .  S
O159       Ni167   1.923       .  S
O159        C169   1.282       .  A
O160       Ni167   1.915       .  S
O160        C170   1.281       .  A
O161       Ni167   1.918       .  S
O161        C171   1.282       .  A
O162       Ni167   1.926       .  S
O162        C172   1.282       .  A
O163       Ni168   1.909       .  S
O163        C172   1.281       .  A
O164       Ni168   1.915       .  S
O164        C171   1.280       .  A
O165       Ni168   1.919       .  S
O165        C170   1.282       .  A
O166       Ni168   1.913       .  S
O166        C169   1.282       .  A
Ni167      Ni168   2.389       .  S
O173       Ni181   1.913       .  S
O173        C183   1.282       .  A
O174       Ni181   1.920       .  S
O174        C184   1.282       .  A
O175       Ni181   1.912       .  S
O175        C185   1.280       .  A
O176       Ni181   1.906       .  S
O176        C186   1.279       .  A
O177       Ni182   1.926       .  S
O177        C186   1.283       .  A
O178       Ni182   1.920       .  S
O178        C185   1.282       .  A
O179       Ni182   1.910       .  S
O179        C184   1.280       .  A
O180       Ni182   1.919       .  S
O180        C183   1.281       .  A
Ni181      Ni182   2.390       .  S
O187       Ni195   1.926       .  S
O187        C197   1.283       .  A
O188       Ni195   1.920       .  S
O188        C198   1.282       .  A
O189       Ni195   1.910       .  S
O189        C199   1.280       .  A
O190       Ni195   1.917       .  S
O190        C200   1.281       .  A
O191       Ni196   1.913       .  S
O191        C200   1.282       .  A
O192       Ni196   1.921       .  S
O192        C199   1.282       .  A
O193       Ni196   1.916       .  S
O193        C198   1.281       .  A
O194       Ni196   1.908       .  S
O194        C197   1.280       .  A
Ni195      Ni196   2.389       .  S
C201        C202   1.402   1_455  A
C201        C206   1.402       .  A
C201        H208   1.084   1_454  S
C202        C203   1.418   1_655  A
C203        C204   1.411       .  A
C203        C210   1.518   1_455  S
C204        C205   1.404       .  A
C204        H209   1.083       .  S
C205        C206   1.420       .  A
C206        C663   1.522   1_554  S
C207        C662   1.522       .  S
C207        F211   1.384       .  S
C207        F212   1.383       .  S
C207        F213   1.381       .  S
C210        F214   1.381       .  S
C210        F215   1.383       .  S
C210        F216   1.384   1_655  S
C217        C218   1.400       .  A
C217        C222   1.398       .  A
C217        H224   1.085       .  S
C218        C219   1.413       .  A
C218        C592   1.475       .  S
C219        C220   1.409       .  A
C219        C682   1.515       .  S
C220        C221   1.405       .  A
C220        H225   1.083       .  S
C221        C222   1.417       .  A
C222        C223   1.517       .  S
C223        F227   1.384       .  S
C223        F228   1.383       .  S
C223        F229   1.383       .  S
C226        C675   1.515   1_554  S
C226        F230   1.383       .  S
C226        F231   1.383       .  S
C226        F232   1.385       .  S
C233        C234   1.403       .  A
C233        C238   1.407       .  A
C233        H240   1.083       .  S
C234        C235   1.415       .  A
C235        C236   1.405       .  A
C235        C242   1.517       .  S
C236        C237   1.402       .  A
C236        H241   1.084       .  S
C237        C238   1.413       .  A
C237        C583   1.476       .  S
C238        C695   1.516       .  S
C239        C694   1.516   1_554  S
C239        F243   1.385       .  S
C239        F244   1.383       .  S
C239        F245   1.383       .  S
C242        F246   1.382       .  S
C242        F247   1.383       .  S
C242        F248   1.385       .  S
C249        C250   1.402   1_455  A
C249        C254   1.400       .  A
C249        H256   1.085   1_455  S
C250        C251   1.417   1_655  A
C251        C252   1.408       .  A
C251        C258   1.518       .  S
C252        C253   1.403       .  A
C252        H257   1.083       .  S
C253        C254   1.417       .  A
C254        C255   1.519       .  S
C255        F259   1.384       .  S
C255        F260   1.382       .  S
C255        F261   1.383       .  S
C258        F262   1.381   1_455  S
C258        F263   1.383   1_455  S
C258        F264   1.384       .  S
C265        C266   1.401   1_455  A
C265        C270   1.406       .  A
C265        H272   1.083   1_455  S
C266        C267   1.415   1_655  A
C267        C268   1.404       .  A
C267        C274   1.517   1_455  S
C268        C269   1.401       .  A
C268        H273   1.084       .  S
C269        C270   1.413       .  A
C270        C271   1.515       .  S
C271        F275   1.384       .  S
C271        F276   1.383       .  S
C271        F277   1.381       .  S
C274        F278   1.383       .  S
C274        F735   1.381   1_554  S
C274        F736   1.384   1_654  S
F279        C730   1.381       .  S
F280        C730   1.384   1_455  S
C281        C282   1.399       .  A
C281        C286   1.399       .  A
C281        H288   1.085       .  S
C282        C283   1.413   1_565  A
C283        C284   1.409       .  A
C283        C290   1.515       .  S
C284        C285   1.405       .  A
C284        H289   1.083       .  S
C285        C286   1.417   1_545  A
C285        C556   1.479       .  S
C286        C743   1.516       .  S
C287        C742   1.516       .  S
C287        F291   1.384       .  S
C287        F292   1.383       .  S
C287        F293   1.383       .  S
C290        F294   1.383       .  S
C290        F295   1.383       .  S
C290        F296   1.385       .  S
C297        C298   1.402   1_545  A
C297        C302   1.408       .  A
C297        H304   1.083       .  S
C298        C299   1.415       .  A
C299        C300   1.405   1_565  A
C299        C306   1.518       .  S
C300        C301   1.402       .  A
C300        H761   1.083   1_545  S
C301        C302   1.415       .  A
C301        C547   1.478       .  S
C302        C303   1.517       .  S
C303        F307   1.384       .  S
C303        F308   1.381       .  S
C303        F309   1.383       .  S
H305        C756   1.083   1_564  S
C306        F310   1.383       .  S
C306        F311   1.383       .  S
C306        F312   1.384       .  S
C313        C314   1.402   1_455  A
C313        C318   1.403       .  A
C313        H320   1.084   1_455  S
C314        C315   1.416   1_655  A
C315        C316   1.411       .  A
C315        C322   1.517       .  S
C316        C317   1.404       .  A
C316        H321   1.083       .  S
C317        C318   1.419       .  A
C318        C319   1.522       .  S
C319        F323   1.384       .  S
C319        F324   1.381       .  S
C319        F325   1.383       .  S
C322        F326   1.383   1_455  S
C322        F327   1.382   1_455  S
C322        F328   1.384       .  S
C329        C330   1.403       .  A
C329        C334   1.409       .  A
C329        H336   1.083       .  S
C330        C331   1.414       .  A
C331        C332   1.403       .  A
C331        C338   1.519       .  S
C332        C333   1.402       .  A
C332        H337   1.084       .  S
C333        C334   1.414       .  A
C334        C335   1.516       .  S
C335        F339   1.385       .  S
C335        F340   1.382       .  S
C335        F341   1.383       .  S
C338        F342   1.383       .  S
C338        F343   1.382       .  S
C338        F344   1.383       .  S
C345        C346   1.407       .  A
C345        C350   1.411       .  A
C345        H352   1.083       .  S
C346        C347   1.420       .  A
C347        C348   1.400       .  A
C347        C354   1.518       .  S
C348        C349   1.401       .  A
C348        H353   1.085       .  S
C349        C350   1.415       .  A
C350        C351   1.516       .  S
C351        F355   1.385       .  S
C351        F356   1.383       .  S
C351        F357   1.382       .  S
C354        F358   1.384       .  S
C354        F359   1.382       .  S
C354        F360   1.384       .  S
C361        C362   1.401       .  A
C361        C366   1.399       .  A
C361        H368   1.085       .  S
C362        C363   1.413       .  A
C363        C364   1.410       .  A
C363        C370   1.515       .  S
C364        C365   1.406       .  A
C364        H369   1.083       .  S
C365        C366   1.418       .  A
C366        C367   1.517       .  S
C367        F371   1.384       .  S
C367        F372   1.383       .  S
C367        F373   1.383       .  S
C370        F374   1.383       .  S
C370        F375   1.383       .  S
C370        F376   1.385       .  S
C377        C378   1.402       .  A
C377        C382   1.408       .  A
C377        H384   1.083       .  S
C378        C379   1.419       .  A
C379        C380   1.402       .  A
C379        C386   1.520       .  S
C380        C381   1.400       .  A
C380        H385   1.084       .  S
C381        C382   1.416       .  A
C382        C383   1.517       .  S
C383        F387   1.384       .  S
C383        F388   1.382       .  S
C383        F389   1.383       .  S
C386        F390   1.383       .  S
C386        F391   1.381       .  S
C386        F392   1.385       .  S
C393        C394   1.403       .  A
C393        C398   1.404       .  A
C393        H400   1.084       .  S
C394        C395   1.416       .  A
C395        C396   1.409       .  A
C395        C402   1.517       .  S
C396        C397   1.403       .  A
C396        H401   1.083       .  S
C397        C398   1.416       .  A
C398        C399   1.520       .  S
C399        F403   1.385       .  S
C399        F404   1.382       .  S
C399        F405   1.382       .  S
C402        F406   1.383       .  S
C402        F407   1.382       .  S
C402        F408   1.384       .  S
C409        C410   1.403       .  A
C409        C414   1.408       .  A
C409        H416   1.083       .  S
C410        C411   1.416   1_565  A
C411        C412   1.405       .  A
C411        C418   1.518       .  S
C412        C413   1.401       .  A
C412        H417   1.084       .  S
C413        C414   1.413   1_545  A
C414        C415   1.515       .  S
C415        F419   1.385       .  S
C415        F420   1.383       .  S
C415        F421   1.383       .  S
C418        F422   1.383       .  S
C418        F423   1.382       .  S
C418        F424   1.385       .  S
C425        C426   1.400   1_545  A
C425        C430   1.408       .  A
C425        H432   1.083       .  S
C426        C427   1.414       .  A
C427        C428   1.403       .  A
C427        C434   1.520       .  S
C428        C429   1.404   1_565  A
C428        H433   1.084       .  S
C429        C430   1.419       .  A
C430        C431   1.518       .  S
C431        F435   1.384       .  S
C431        F436   1.382       .  S
C431        F437   1.383       .  S
C434        F438   1.383       .  S
C434        F439   1.382       .  S
C434        F440   1.384       .  S
C441        C442   1.401       .  A
C441        C446   1.402       .  A
C441        H448   1.083       .  S
C442        C443   1.413       .  A
C443        C444   1.409       .  A
C443        C450   1.515       .  S
C444        C445   1.403       .  A
C444        H449   1.083       .  S
C445        C446   1.414       .  A
C446        C447   1.519       .  S
C447        F451   1.382       .  S
C447        F452   1.383       .  S
C447        F453   1.382       .  S
C450        F454   1.383       .  S
C450        F455   1.383   1_565  S
C450        F456   1.385       .  S
C457        C458   1.397       .  A
C457        C462   1.400       .  A
C457        C882   1.474       .  S
C458        C459   1.396       .  A
C458        H463   1.085       .  S
C459        C460   1.401       .  A
C459        C898   1.475       .  S
C460        C461   1.409       .  A
C460        H464   1.084       .  S
C461        C462   1.409       .  A
C461        C612   1.476       .  S
C462        H465   1.084       .  S
C466        C467   1.401       .  A
C466        C471   1.407       .  A
C466        C866   1.479       .  S
C467        C468   1.395       .  A
C467        H472   1.085       .  S
C468        C469   1.396       .  A
C468        C901   1.474       .  S
C469        C470   1.407       .  A
C469        H473   1.084       .  S
C470        C471   1.411       .  A
C470        C628   1.477       .  S
C471        H474   1.083       .  S
C475        C476   1.401       .  A
C475        C480   1.399       .  A
C475        C869   1.477       .  S
C476        C477   1.409       .  A
C476        H481   1.084       .  S
C477        C478   1.408       .  A
C477        C654   1.476       .  S
C478        C479   1.402       .  A
C478        H482   1.083       .  S
C479        C480   1.400       .  A
C479        C850   1.482       .  S
C480        H483   1.085       .  S
C484        C485   1.405       .  A
C484        C489   1.403       .  A
C484        C885   1.482       .  S
C485        C486   1.407       .  A
C485        H490   1.082       .  S
C486        C487   1.408       .  A
C486        C642   1.473       .  S
C487        C488   1.398       .  A
C487        H491   1.084       .  S
C488        C489   1.396       .  A
C488        C853   1.480       .  S
C489        H492   1.084       .  S
C493        C494   1.404       .  A
C493        C498   1.400       .  A
C493        C818   1.477       .  S
C494        C495   1.411       .  A
C494        H499   1.083       .  S
C495        C496   1.408       .  A
C495        C639   1.477       .  S
C496        C497   1.398       .  A
C496        H500   1.084       .  S
C497        C498   1.395       .  A
C497        C834   1.479       .  S
C498        H501   1.084       .  S
C502        C503   1.404       .  A
C502        C507   1.407       .  A
C502        C802   1.486       .  S
C503        C504   1.398       .  A
C503        H508   1.084       .  S
C504        C505   1.397       .  A
C504        C837   1.477       .  S
C505        C506   1.405       .  A
C505        H509   1.084       .  S
C506        C507   1.408       .  A
C506        C655   1.471       .  S
C507        H510   1.084       .  S
C511        C512   1.404       .  A
C511        C516   1.403       .  A
C511        C821   1.482       .  S
C512        C513   1.408       .  A
C512        H517   1.084       .  S
C513        C514   1.406       .  A
C513        C613   1.473       .  S
C514        C515   1.398       .  A
C514        H518   1.084       .  S
C515        C516   1.397       .  A
C515        C786   1.475       .  S
C516        H519   1.084       .  S
C520        C521   1.400       .  A
C520        C525   1.406       .  A
C520        C805   1.481       .  S
C521        C522   1.395       .  A
C521        H526   1.085       .  S
C522        C523   1.398       .  A
C522        C789   1.476       .  S
C523        C524   1.409       .  A
C523        H527   1.084       .  S
C524        C525   1.412       .  A
C524        C625   1.481       .  S
C525        H528   1.083       .  S
C529        C530   1.401       .  A
C529        C534   1.399       .  A
C529        C754   1.477       .  S
C530        C531   1.408       .  A
C530        H535   1.084       .  S
C531        C532   1.409       .  A
C531        C626   1.475       .  S
C532        C533   1.402       .  A
C532        H536   1.083       .  S
C533        C534   1.400       .  A
C533        C770   1.483       .  S
C534        H537   1.085       .  S
C538        C539   1.402       .  A
C538        C543   1.400       .  A
C538        C738   1.474       .  S
C539        C540   1.408       .  A
C539        H544   1.083       .  S
C540        C541   1.410       .  A
C540        C614   1.476       .  S
C541        C542   1.401       .  A
C541        H545   1.084       .  S
C542        C543   1.396       .  A
C542        C773   1.482       .  S
C543        H546   1.084       .  S
C547        C548   1.404       .  A
C547        C552   1.402       .  A
C548        C549   1.410       .  A
C548        H553   1.083       .  S
C549        C550   1.406       .  A
C549        C656   1.475       .  S
C550        C551   1.396       .  A
C550        H554   1.084       .  S
C551        C552   1.397       .  A
C551        C722   1.475       .  S
C552        H555   1.085       .  S
C556        C557   1.402       .  A
C556        C561   1.404       .  A
C557        C558   1.396       .  A
C557        H562   1.085       .  S
C558        C559   1.397       .  A
C558        C725   1.474       .  S
C559        C560   1.407       .  A
C559        H563   1.084       .  S
C560        C561   1.408       .  A
C560        C640   1.472       .  S
C561        H564   1.084       .  S
C565        C566   1.403       .  A
C565        C570   1.400       .  A
C565        C690   1.478       .  S
C566        C567   1.409       .  A
C566        H571   1.084       .  S
C567        C568   1.405       .  A
C567        C627   1.473       .  S
C568        C569   1.400       .  A
C568        H572   1.083       .  S
C569        C570   1.399       .  A
C569        C706   1.480       .  S
C570        H573   1.085       .  S
C574        C575   1.402       .  A
C574        C579   1.405       .  A
C574        C677   1.478       .  S
C575        C576   1.396       .  A
C575        H580   1.085       .  S
C576        C577   1.397       .  A
C576        C709   1.476       .  S
C577        C578   1.406       .  A
C577        H581   1.084       .  S
C578        C579   1.408       .  A
C578        C611   1.472       .  S
C579        H582   1.084       .  S
C583        C584   1.403       .  A
C583        C588   1.400       .  A
C584        C585   1.408       .  A
C584        H589   1.083       .  S
C585        C586   1.410       .  A
C585        C653   1.477       .  S
C586        C587   1.400       .  A
C586        H590   1.082       .  S
C587        C588   1.399       .  A
C587        C658   1.485       .  S
C588        H591   1.085       .  S
C592        C593   1.400       .  A
C592        C597   1.399       .  A
C593        C594   1.398       .  A
C593        H598   1.084       .  S
C594        C595   1.403       .  A
C594        C661   1.484       .  S
C595        C596   1.409       .  A
C595        H599   1.084       .  S
C596        C597   1.408       .  A
C596        C641   1.475       .  S
C597        H600   1.083       .  S
O601       Ni609   1.907       .  S
O601        C611   1.280       .  A
O602       Ni609   1.915       .  S
O602        C612   1.281       .  A
O603       Ni609   1.917       .  S
O603        C613   1.281       .  A
O604       Ni609   1.912       .  S
O604        C614   1.281       .  A
O605       Ni610   1.922       .  S
O605        C614   1.282       .  A
O606       Ni610   1.915       .  S
O606        C613   1.281       .  A
O607       Ni610   1.916       .  S
O607        C612   1.281       .  A
O608       Ni610   1.923       .  S
O608        C611   1.282       .  A
Ni609      Ni610   2.389       .  S
O615       Ni623   1.923       .  S
O615        C625   1.282       .  A
O616       Ni623   1.915       .  S
O616        C626   1.281       .  A
O617       Ni623   1.918       .  S
O617        C627   1.282       .  A
O618       Ni623   1.926       .  S
O618        C628   1.282       .  A
O619       Ni624   1.909       .  S
O619        C628   1.281       .  A
O620       Ni624   1.915       .  S
O620        C627   1.280       .  A
O621       Ni624   1.919       .  S
O621        C626   1.282       .  A
O622       Ni624   1.913       .  S
O622        C625   1.282       .  A
Ni623      Ni624   2.389       .  S
O629       Ni637   1.913       .  S
O629        C639   1.282       .  A
O630       Ni637   1.920       .  S
O630        C640   1.282       .  A
O631       Ni637   1.912       .  S
O631        C641   1.280       .  A
O632       Ni637   1.906       .  S
O632        C642   1.279       .  A
O633       Ni638   1.926       .  S
O633        C642   1.283       .  A
O634       Ni638   1.920       .  S
O634        C641   1.282       .  A
O635       Ni638   1.910       .  S
O635        C640   1.280       .  A
O636       Ni638   1.919       .  S
O636        C639   1.281       .  A
Ni637      Ni638   2.390       .  S
O643       Ni651   1.926       .  S
O643        C653   1.283       .  A
O644       Ni651   1.920       .  S
O644        C654   1.282       .  A
O645       Ni651   1.910       .  S
O645        C655   1.280       .  A
O646       Ni651   1.917       .  S
O646        C656   1.281       .  A
O647       Ni652   1.913       .  S
O647        C656   1.282       .  A
O648       Ni652   1.921       .  S
O648        C655   1.282       .  A
O649       Ni652   1.916       .  S
O649        C654   1.281       .  A
O650       Ni652   1.908       .  S
O650        C653   1.280       .  A
Ni651      Ni652   2.389       .  S
C657        C658   1.402   1_455  A
C657        C662   1.402       .  A
C657        H664   1.084   1_455  S
C658        C659   1.418   1_655  A
C659        C660   1.411       .  A
C659        C666   1.518   1_455  S
C660        C661   1.404       .  A
C660        H665   1.083       .  S
C661        C662   1.420       .  A
C663        F667   1.384       .  S
C663        F668   1.383       .  S
C663        F669   1.381       .  S
C666        F670   1.381       .  S
C666        F671   1.383       .  S
C666        F672   1.384   1_655  S
C673        C674   1.400       .  A
C673        C678   1.398       .  A
C673        H680   1.085       .  S
C674        C675   1.413       .  A
C675        C676   1.409       .  A
C676        C677   1.405       .  A
C676        H681   1.083       .  S
C677        C678   1.417       .  A
C678        C679   1.517       .  S
C679        F683   1.384       .  S
C679        F684   1.383       .  S
C679        F685   1.383       .  S
C682        F686   1.383       .  S
C682        F687   1.383       .  S
C682        F688   1.385       .  S
C689        C690   1.403       .  A
C689        C694   1.407       .  A
C689        H696   1.083       .  S
C690        C691   1.415       .  A
C691        C692   1.405       .  A
C691        C698   1.517       .  S
C692        C693   1.402       .  A
C692        H697   1.084       .  S
C693        C694   1.413       .  A
C695        F699   1.385       .  S
C695        F700   1.383       .  S
C695        F701   1.383       .  S
C698        F702   1.382       .  S
C698        F703   1.383       .  S
C698        F704   1.385       .  S
C705        C706   1.402   1_455  A
C705        C710   1.400       .  A
C705        H712   1.085   1_455  S
C706        C707   1.417   1_655  A
C707        C708   1.408       .  A
C707        C714   1.518       .  S
C708        C709   1.403       .  A
C708        H713   1.083       .  S
C709        C710   1.417       .  A
C710        C711   1.519       .  S
C711        F715   1.384       .  S
C711        F716   1.382       .  S
C711        F717   1.383       .  S
C714        F718   1.381   1_455  S
C714        F719   1.383   1_455  S
C714        F720   1.384       .  S
C721        C722   1.401   1_455  A
C721        C726   1.406       .  A
C721        H728   1.083   1_455  S
C722        C723   1.415   1_655  A
C723        C724   1.404       .  A
C723        C730   1.517   1_455  S
C724        C725   1.401       .  A
C724        H729   1.084       .  S
C725        C726   1.413       .  A
C726        C727   1.515       .  S
C727        F731   1.384       .  S
C727        F732   1.383       .  S
C727        F733   1.381       .  S
C730        F734   1.383       .  S
C737        C738   1.399       .  A
C737        C742   1.399   1_556  A
C737        H744   1.085       .  S
C738        C739   1.413   1_565  A
C739        C740   1.409       .  A
C739        C746   1.515       .  S
C740        C741   1.405       .  A
C740        H745   1.083       .  S
C741        C742   1.417   1_546  A
C743        F747   1.384       .  S
C743        F748   1.383       .  S
C743        F749   1.383       .  S
C746        F750   1.383       .  S
C746        F751   1.383       .  S
C746        F752   1.385       .  S
C753        C754   1.402   1_545  A
C753        C758   1.408       .  A
C753        H760   1.083       .  S
C754        C755   1.415       .  A
C755        C756   1.405   1_565  A
C755        C762   1.518       .  S
C756        C757   1.402       .  A
C757        C758   1.415       .  A
C758        C759   1.517       .  S
C759        F763   1.384       .  S
C759        F764   1.381       .  S
C759        F765   1.383       .  S
C762        F766   1.383       .  S
C762        F767   1.383       .  S
C762        F768   1.384   1_556  S
C769        C770   1.402   1_455  A
C769        C774   1.403       .  A
C769        H776   1.084   1_455  S
C770        C771   1.416   1_655  A
C771        C772   1.411       .  A
C771        C778   1.517       .  S
C772        C773   1.404       .  A
C772        H777   1.083       .  S
C773        C774   1.419       .  A
C774        C775   1.522       .  S
C775        F779   1.384       .  S
C775        F780   1.381       .  S
C775        F781   1.383       .  S
C778        F782   1.383   1_455  S
C778        F783   1.382   1_455  S
C778        F784   1.384       .  S
C785        C786   1.403       .  A
C785        C790   1.409       .  A
C785        H792   1.083       .  S
C786        C787   1.414       .  A
C787        C788   1.403       .  A
C787        C794   1.519       .  S
C788        C789   1.402       .  A
C788        H793   1.084       .  S
C789        C790   1.414       .  A
C790        C791   1.516       .  S
C791        F795   1.385       .  S
C791        F796   1.382       .  S
C791        F797   1.383       .  S
C794        F798   1.383       .  S
C794        F799   1.382       .  S
C794        F800   1.383       .  S
C801        C802   1.407       .  A
C801        C806   1.411       .  A
C801        H808   1.083       .  S
C802        C803   1.420       .  A
C803        C804   1.400       .  A
C803        C810   1.518       .  S
C804        C805   1.401       .  A
C804        H809   1.085       .  S
C805        C806   1.415       .  A
C806        C807   1.516       .  S
C807        F811   1.385       .  S
C807        F812   1.383       .  S
C807        F813   1.382       .  S
C810        F814   1.384       .  S
C810        F815   1.382       .  S
C810        F816   1.384       .  S
C817        C818   1.401       .  A
C817        C822   1.399       .  A
C817        H824   1.085       .  S
C818        C819   1.413       .  A
C819        C820   1.410       .  A
C819        C826   1.515       .  S
C820        C821   1.406       .  A
C820        H825   1.083       .  S
C821        C822   1.418       .  A
C822        C823   1.517       .  S
C823        F827   1.384       .  S
C823        F828   1.383       .  S
C823        F829   1.383       .  S
C826        F830   1.383       .  S
C826        F831   1.383       .  S
C826        F832   1.385       .  S
C833        C834   1.402       .  A
C833        C838   1.408       .  A
C833        H840   1.083       .  S
C834        C835   1.419       .  A
C835        C836   1.402       .  A
C835        C842   1.520       .  S
C836        C837   1.400       .  A
C836        H841   1.084       .  S
C837        C838   1.416       .  A
C838        C839   1.517       .  S
C839        F843   1.384       .  S
C839        F844   1.382       .  S
C839        F845   1.383       .  S
C842        F846   1.383       .  S
C842        F847   1.381       .  S
C842        F848   1.385       .  S
C849        C850   1.403       .  A
C849        C854   1.404       .  A
C849        H856   1.084       .  S
C850        C851   1.416       .  A
C851        C852   1.409       .  A
C851        C858   1.517       .  S
C852        C853   1.403       .  A
C852        H857   1.083       .  S
C853        C854   1.416       .  A
C854        C855   1.520       .  S
C855        F859   1.385       .  S
C855        F860   1.382       .  S
C855        F861   1.382       .  S
C858        F862   1.383       .  S
C858        F863   1.382       .  S
C858        F864   1.384       .  S
C865        C866   1.403       .  A
C865        C870   1.408       .  A
C865        H872   1.083       .  S
C866        C867   1.416   1_565  A
C867        C868   1.405       .  A
C867        C874   1.518       .  S
C868        C869   1.401       .  A
C868        H873   1.084       .  S
C869        C870   1.413   1_545  A
C870        C871   1.515       .  S
C871        F875   1.385       .  S
C871        F876   1.383       .  S
C871        F877   1.383       .  S
C874        F878   1.383       .  S
C874        F879   1.382       .  S
C874        F880   1.385       .  S
C881        C882   1.400   1_545  A
C881        C886   1.408       .  A
C881        H888   1.083       .  S
C882        C883   1.414       .  A
C883        C884   1.403       .  A
C883        C890   1.520       .  S
C884        C885   1.404   1_565  A
C884        H889   1.084       .  S
C885        C886   1.419       .  A
C886        C887   1.518       .  S
C887        F891   1.384       .  S
C887        F892   1.382       .  S
C887        F893   1.383       .  S
C890        F894   1.383       .  S
C890        F895   1.382       .  S
C890        F896   1.384       .  S
C897        C898   1.401       .  A
C897        C902   1.402       .  A
C897        H904   1.083       .  S
C898        C899   1.413       .  A
C899        C900   1.409       .  A
C899        C906   1.515       .  S
C900        C901   1.403       .  A
C900        H905   1.083       .  S
C901        C902   1.414       .  A
C902        C903   1.519       .  S
C903        F907   1.382       .  S
C903        F908   1.383       .  S
C903        F909   1.382       .  S
C906        F910   1.383       .  S
C906        F911   1.383   1_565  S
C906        F912   1.385       .  S
