geometry optimzed in LAMMPS
_audit_creation_date              2020-12-01 
_audit_creation_method            'lammps2cif' 
_symmetry_space_group_name_H-M    'P1' 
_symmetry_Int_Tables_number       1 
_symmetry_cell_setting            triclinic 
loop_ 
_symmetry_equiv_pos_as_xyz 
  x,y,z 
_cell_length_a                    40.08147903 
_cell_length_b                    39.88210251149888 
_cell_length_c                    39.93269244301963 
_cell_angle_alpha                 90.36823627601683 
_cell_angle_beta                  90.32613924500339 
_cell_angle_gamma                 90.17637435623178 
loop_ 
_atom_site_label 
_atom_site_type_symbol 
_atom_site_fract_x 
_atom_site_fract_y 
_atom_site_fract_z 
_atom_site_charge 
C1          C  0.77498180  0.50322229  0.05090048     0.86500
C2          C  0.75822724  0.53781280  0.04608708    -0.53800
C3          C  0.74606236  0.54229952  0.01401663     0.09400
C4          C  0.75230090  0.51189140  0.99046299     0.20400
C5          C  0.74774067  0.47797134  0.04015673    -0.54500
C6          C  0.73657558  0.48180451  0.00833519     0.09500
C7          C  0.80163660  0.50105884  0.02342742    -0.54000
C8          C  0.78986621  0.50553266  0.99179283     0.10100
H9          H  0.75583847  0.55641463  0.06586981     0.14600
H10         H  0.74305702  0.51469661  0.96452689     0.00300
H11         H  0.73905427  0.45776542  0.05599157     0.14900
H12         H  0.82705539  0.49293425  0.02834900     0.14700
C13         C  0.54683824  0.74720374  0.00296669     0.86500
C14         C  0.52070730  0.71910306  0.99974700    -0.53800
C15         C  0.48867453  0.72959135  0.00267728     0.09400
C16         C  0.48536712  0.76724909  0.00823259     0.20400
C17         C  0.53617459  0.77364605  0.97672555    -0.54500
C18         C  0.50385060  0.78363067  0.97909166     0.09500
C19         C  0.53940236  0.76471326  0.03694212    -0.54000
C20         C  0.50678184  0.77563465  0.03943113     0.10100
H21         H  0.52692347  0.69358982  0.99240869     0.14600
H22         H  0.45899282  0.77482129  0.00955615     0.00300
H23         H  0.55273422  0.78348377  0.95774574     0.14900
H24         H  0.55813580  0.76919131  0.05618792     0.14700
C25         C  0.00063669  0.54957179  0.74345787     0.86500
C26         C  0.99769858  0.52201075  0.71645529    -0.53800
C27         C  0.00085712  0.49027425  0.72829928     0.09400
C28         C  0.00619668  0.48873309  0.76606090     0.20400
C29         C  0.97445156  0.53995765  0.77017896    -0.54500
C30         C  0.97688928  0.50798323  0.78149291     0.09500
C31         C  0.03446592  0.54301842  0.76117039    -0.54000
C32         C  0.03721062  0.51071478  0.77314128     0.10100
H33         H  0.99075764  0.52709612  0.69063634     0.14600
H34         H  0.00785201  0.46267803  0.77507589     0.00300
H35         H  0.95513764  0.55686259  0.77888542     0.14900
H36         H  0.05383607  0.56186702  0.76427282     0.14700
C37         C  0.54347271  0.00902937  0.74498927     0.86500
C38         C  0.53643482  0.04384167  0.76064633    -0.53800
C39         C  0.50431535  0.04678673  0.77244649     0.09400
C40         C  0.48292393  0.01487329  0.76737832     0.20400
C41         C  0.53450749  0.98407423  0.77310808    -0.54500
C42         C  0.50260241  0.98661050  0.78427999     0.09500
C43         C  0.51608894  0.00394573  0.71828388    -0.54000
C44         C  0.48450060  0.00712212  0.73003231     0.10100
H45         H  0.55479726  0.06383922  0.76235307     0.14600
H46         H  0.45699831  0.01672481  0.77642805     0.00300
H47         H  0.55153701  0.96509743  0.78233127     0.14900
H48         H  0.52123780  0.99563783  0.69286045     0.14700
C49         C  0.74298045  0.01478167  0.54132080     0.86500
C50         C  0.71584775  0.00855203  0.51456104    -0.53800
C51         C  0.72661714  0.01172097  0.48253352     0.09400
C52         C  0.76351327  0.02055426  0.47989220     0.20400
C53         C  0.77166229  0.99080121  0.53179300    -0.54500
C54         C  0.78187546  0.99329725  0.49954916     0.09500
C55         C  0.75742259  0.04996627  0.53353608    -0.54000
C56         C  0.76849381  0.05275906  0.50094213     0.10100
H57         H  0.69095503  0.99954768  0.52045478     0.14600
H58         H  0.77170938  0.02222323  0.45360213     0.00300
H59         H  0.78250120  0.97285354  0.54899491     0.14900
H60         H  0.75989356  0.06988654  0.55202708     0.14700
C61         C  0.00441171  0.75770129  0.54532134     0.86500
C62         C  0.03964439  0.77220816  0.53829484    -0.53800
C63         C  0.04291285  0.78397207  0.50598850     0.09400
C64         C  0.01103470  0.78002253  0.48461463     0.20400
C65         C  0.98059182  0.78681522  0.53628561    -0.54500
C66         C  0.98353767  0.79791486  0.50429578     0.09500
C67         C  0.99848812  0.73124398  0.51769436    -0.54000
C68         C  0.00212860  0.74302973  0.48610078     0.10100
H69         H  0.05957551  0.77330646  0.55677301     0.14600
H70         H  0.01312313  0.78895002  0.45860632     0.00300
H71         H  0.96202544  0.79676003  0.55332556     0.14900
H72         H  0.98952263  0.70602401  0.52267429     0.14700
C73         C  0.24350374  0.51496525  0.04022349     0.86500
C74         C  0.21622242  0.50989030  0.01343154    -0.53800
C75         C  0.22721684  0.51256887  0.98143900     0.09400
C76         C  0.26444954  0.51980302  0.97889488     0.20400
C77         C  0.27121397  0.48965674  0.03073050    -0.54500
C78         C  0.28174356  0.49180652  0.99850817     0.09500
C79         C  0.25944527  0.54944393  0.03249610    -0.54000
C80         C  0.27074395  0.55171671  0.99998817     0.10100
H81         H  0.19099533  0.50184407  0.01927029     0.14600
H82         H  0.27260135  0.52122056  0.95260574     0.00300
H83         H  0.28150013  0.47147544  0.04801641     0.14900
H84         H  0.26277390  0.56921632  0.05101938     0.14700
N85         N  0.96222964  0.32757794  0.01567765    -0.36600
N86         N  0.01258713  0.32054852  0.96424520    -0.57200
N87         N  0.06437048  0.33695280  0.01264519    -0.36600
N88         N  0.01443661  0.33531970  0.06536283    -0.57200
C89         C  0.94321066  0.31740548  0.98948798     0.27000
C90         C  0.94403056  0.32313695  0.04371120     0.27000
C91         C  0.08284588  0.32787277  0.98581302     0.27000
C92         C  0.08431573  0.33477866  0.04002732     0.27000
C93         C  0.98531513  0.31384907  0.94531634     0.35600
C94         C  0.03903889  0.31787472  0.94362440     0.35600
C95         C  0.98847405  0.32911643  0.08591775     0.35600
C96         C  0.04228151  0.33401592  0.08451794     0.35600
C97         C  0.91305032  0.30517309  0.00098474    -0.21900
C98         C  0.91357176  0.30874863  0.03530257    -0.21900
C99         C  0.11436358  0.31843257  0.99643499    -0.21900
C100        C  0.11534852  0.32292403  0.03062830    -0.21900
C101        C  0.99473158  0.30334504  0.91366579    -0.23000
C102        C  0.02883031  0.30593582  0.91256320    -0.22900
C103        C  0.00016956  0.32074320  0.11743573    -0.23000
C104        C  0.03422813  0.32393774  0.11658306    -0.22900
C105        C  0.95220639  0.32013763  0.95549206    -0.18300
C106        C  0.95442940  0.33167477  0.07657947    -0.18300
C107        C  0.07477482  0.34202428  0.07338780    -0.18300
C108        C  0.07183113  0.32810858  0.95205668    -0.18300
H109        H  0.89304727  0.29421721  0.98620058     0.14600
H110        H  0.89412123  0.30077566  0.05219158     0.14600
H111        H  0.13412938  0.30792162  0.98134521     0.14600
H112        H  0.13600356  0.31645779  0.04688286     0.14600
H113        H  0.97864286  0.29508720  0.89335572     0.12900
H114        H  0.04430419  0.29989381  0.89125739     0.12900
H115        H  0.98580121  0.31208218  0.13855768     0.12900
H116        H  0.05118180  0.31828298  0.13694297     0.12900
H117        H  0.98432472  0.34108193  0.01394366     0.26200
H118        H  0.04087445  0.34788877  0.01180319     0.26200
N119        N  0.91377469  0.48436289  0.84388750    -0.27300
N120        N  0.92631108  0.45483681  0.83553089    -0.35200
C121        C  0.94994489  0.45890754  0.81225119     0.01000
C122        C  0.95289368  0.49263703  0.80525209     0.07100
C123        C  0.92933273  0.50811976  0.82563494    -0.06000
H124        H  0.96426897  0.43852333  0.80173441     0.07700
H125        H  0.92447659  0.53471312  0.82769646     0.08900
Cu126      Cu  0.91519767  0.40979517  0.85807843     0.44200
Cu127      Cu  0.87736626  0.49005698  0.88142923     0.42000
Cu128      Cu  0.85420592  0.40867213  0.91859667     0.43900
N129        N  0.91132516  0.37086869  0.89158399    -0.34700
N130        N  0.88788313  0.37016458  0.91442411    -0.28900
C131        C  0.89674130  0.34869418  0.93862471    -0.05000
C132        C  0.92773381  0.33482822  0.93096110     0.07200
C133        C  0.93585952  0.34998884  0.90062259     0.01000
H134        H  0.88398904  0.34780560  0.96232470     0.08600
H135        H  0.95993718  0.35055249  0.88869789     0.07700
N136        N  0.83385452  0.45405448  0.93191087    -0.36100
N137        N  0.84241278  0.48386788  0.92022449    -0.28300
C138        C  0.82687401  0.50755965  0.93881785    -0.03500
C139        C  0.80799679  0.49150464  0.96299060     0.05100
C140        C  0.81310175  0.45784494  0.95780647     0.03200
H141        H  0.83024004  0.53430806  0.93595223     0.08300
H142        H  0.80380660  0.43750618  0.97298835     0.07100
C143        C  0.04716844  0.51675975  0.24850877     0.86500
C144        C  0.04104854  0.55126463  0.26546344    -0.53800
C145        C  0.00905627  0.55447202  0.27774373     0.09400
C146        C  0.98700150  0.52319711  0.27173471     0.20400
C147        C  0.03787231  0.49115861  0.27597961    -0.54500
C148        C  0.00615325  0.49401250  0.28746046     0.09500
C149        C  0.01937341  0.51327779  0.22199155    -0.54000
C150        C  0.98797808  0.51678113  0.23415368     0.10100
H151        H  0.05982542  0.57083083  0.26758164     0.14600
H152        H  0.96121599  0.52506426  0.28113560     0.00300
H153        H  0.05450364  0.47157174  0.28463102     0.14900
H154        H  0.02404310  0.50524762  0.19638188     0.14700
N155        N  0.91409889  0.49359522  0.18535586    -0.27300
N156        N  0.92659593  0.46408964  0.19372514    -0.35200
C157        C  0.95395426  0.46850383  0.21255376     0.01000
C158        C  0.95923466  0.50225430  0.21645596     0.07100
C159        C  0.93350831  0.51778667  0.19923436    -0.06000
H160        H  0.96972530  0.44847255  0.22155792     0.07700
H161        H  0.92988081  0.54444319  0.19602497     0.08900
Cu162      Cu  0.91251257  0.41819631  0.17528269     0.44200
Cu163      Cu  0.87296401  0.49849511  0.15305677     0.42000
Cu164      Cu  0.85080063  0.41490956  0.11820853     0.43900
N165        N  0.91076322  0.37947354  0.14149812    -0.34700
N166        N  0.88741796  0.37829856  0.11836501    -0.28900
C167        C  0.89767214  0.35813179  0.09334635    -0.05000
C168        C  0.92940899  0.34562790  0.10105792     0.07200
C169        C  0.93656967  0.36047967  0.13201442     0.01000
H170        H  0.88515355  0.35708071  0.06934551     0.08600
H171        H  0.96048098  0.36233103  0.14437495     0.07700
N172        N  0.82313826  0.45843336  0.11257213    -0.36100
N173        N  0.83199034  0.48921172  0.12140167    -0.28300
C174        C  0.81277330  0.51112296  0.10414568    -0.03500
C175        C  0.79008372  0.49323452  0.08427643     0.05100
C176        C  0.79797257  0.45998431  0.09067584     0.03200
H177        H  0.81725766  0.53786515  0.10338764     0.08300
H178        H  0.78970600  0.43837990  0.07632727     0.07100
N179        N  0.17451622  0.49052233  0.90971631    -0.27300
N180        N  0.18507978  0.46080757  0.91986227    -0.35200
C181        C  0.20568717  0.46473476  0.94611328     0.01000
C182        C  0.20837628  0.49836928  0.95309233     0.07100
C183        C  0.18855286  0.51428925  0.92956692    -0.06000
H184        H  0.21663317  0.44438423  0.96016275     0.07700
H185        H  0.18379442  0.54090053  0.92774215     0.08900
Cu186      Cu  0.16689349  0.41500508  0.90457408     0.44200
Cu187      Cu  0.13931194  0.49656013  0.87113855     0.42000
Cu188      Cu  0.10185207  0.41541871  0.84861788     0.43900
N189        N  0.13248299  0.37684409  0.90406295    -0.34700
N190        N  0.10683129  0.37742910  0.88346422    -0.28900
C191        C  0.08289802  0.35722986  0.89544387    -0.05000
C192        C  0.09389144  0.34272428  0.92534675     0.07200
C193        C  0.12572187  0.35636105  0.92968195     0.01000
H194        H  0.05766446  0.35756479  0.88582448     0.08600
H195        H  0.14094368  0.35605372  0.95200537     0.07700
N196        N  0.09322600  0.45994677  0.82348521    -0.36100
N197        N  0.10444480  0.48998935  0.83225891    -0.28300
C198        C  0.08814862  0.51326930  0.81386836    -0.03500
C199        C  0.06567058  0.49687644  0.79268607     0.05100
C200        C  0.07023799  0.46316847  0.79933355     0.03200
H201        H  0.09074813  0.54007325  0.81734216     0.08300
H202        H  0.05639325  0.44217539  0.78907844     0.07100
N203        N  0.51480839  0.46642583  0.81185059    -0.36600
N204        N  0.46537047  0.51895610  0.80514876    -0.57200
N205        N  0.51467194  0.56891296  0.82394479    -0.36600
N206        N  0.56568027  0.51695151  0.82087426    -0.57200
C207        C  0.48811461  0.44816739  0.80192913     0.27000
C208        C  0.54203390  0.44690838  0.80816058     0.27000
C209        C  0.48838754  0.58855452  0.81576795     0.27000
C210        C  0.54252933  0.58813045  0.82221841     0.27000
C211        C  0.44587777  0.49225059  0.79767262     0.35600
C212        C  0.44541507  0.54609791  0.80360900     0.35600
C213        C  0.58536169  0.49019819  0.81449599     0.35600
C214        C  0.58556596  0.54431343  0.81996287     0.35600
C215        C  0.49842902  0.41699555  0.79072059    -0.21900
C216        C  0.53259919  0.41620895  0.79457330    -0.21900
C217        C  0.49979354  0.62019553  0.80742776    -0.21900
C218        C  0.53393633  0.61995376  0.81154134    -0.21900
C219        C  0.41449235  0.50280044  0.78778880    -0.23000
C220        C  0.41416067  0.53700378  0.79161024    -0.22900
C221        C  0.61716038  0.50094969  0.80645043    -0.23000
C222        C  0.61733298  0.53519951  0.81002662    -0.22900
C223        C  0.45469433  0.45871849  0.80450848    -0.18300
C224        C  0.57499690  0.45629135  0.81695558    -0.18300
C225        C  0.57554331  0.57720606  0.82882445    -0.18300
C226        C  0.45448738  0.57831997  0.81545899    -0.18300
H227        H  0.48296931  0.39713643  0.78038677     0.14600
H228        H  0.54871397  0.39566719  0.78747383     0.14600
H229        H  0.48528656  0.64079471  0.79763167     0.14600
H230        H  0.55064298  0.64031963  0.80536380     0.14600
H231        H  0.39362933  0.48726267  0.77998190     0.12900
H232        H  0.39310537  0.55322177  0.78677978     0.12900
H233        H  0.63784480  0.48584259  0.79790616     0.12900
H234        H  0.63826721  0.55159621  0.80507475     0.12900
H235        H  0.51373989  0.48891195  0.82494816     0.26200
H236        H  0.51320641  0.54501015  0.83402873     0.26200
N237        N  0.62034479  0.69248949  0.99308698    -0.27300
N238        N  0.61389253  0.70244728  0.96219937    -0.35200
C239        C  0.59115840  0.72678613  0.96282753     0.01000
C240        C  0.58144118  0.73323072  0.99548912     0.07100
C241        C  0.60046839  0.71038931  0.01408793    -0.06000
H242        H  0.57858737  0.73519078  0.94038271     0.07700
H243        H  0.59752559  0.70495836  0.04041198     0.08900
Cu244      Cu  0.62225898  0.67634488  0.91821520     0.44200
Cu245      Cu  0.65360639  0.65192649  0.00252101     0.42000
Cu246      Cu  0.67471248  0.61251533  0.92096438     0.43900
N247        N  0.61944494  0.63996235  0.88122921    -0.34700
N248        N  0.64056135  0.61495418  0.88237509    -0.28900
C249        C  0.62980811  0.59031743  0.86198116    -0.05000
C250        C  0.60020549  0.60019304  0.84628069     0.07200
C251        C  0.59439987  0.63201674  0.85999190     0.01000
H252        H  0.64040625  0.56547181  0.86248992     0.08600
H253        H  0.57180074  0.64655765  0.85838663     0.07700
N254        N  0.69830209  0.60268764  0.96576454    -0.36100
N255        N  0.69005101  0.61361728  0.99597086    -0.28300
C256        C  0.70748788  0.59537280  0.01874462    -0.03500
C257        C  0.72725820  0.57209439  0.00167532     0.05100
C258        C  0.72084741  0.57824247  0.96830879     0.03200
H259        H  0.70454937  0.59747476  0.04558474     0.08300
H260        H  0.73023303  0.56466545  0.94687413     0.02300
C261        C  0.50309091  0.25279172  0.03848688     0.86500
C262        C  0.53767097  0.26865799  0.03162707    -0.53800
C263        C  0.54057817  0.28070838  0.99943352     0.09400
C264        C  0.50891644  0.27544947  0.97780931     0.20400
C265        C  0.47820707  0.28096816  0.02948554    -0.54500
C266        C  0.48071959  0.29223513  0.99755156     0.09500
C267        C  0.49825016  0.22613942  0.01084279    -0.54000
C268        C  0.50142244  0.23800985  0.97919246     0.10100
H269        H  0.55742347  0.27058126  0.05024114     0.14600
H270        H  0.51070519  0.28458271  0.95182877     0.00300
H271        H  0.45941856  0.29036384  0.04658789     0.14900
H272        H  0.49007891  0.20065940  0.01586446     0.14700
N273        N  0.31525031  0.01600974  0.95496951    -0.36600
N274        N  0.32401173  0.06781827  0.00555749    -0.57200
N275        N  0.32526443  0.01684072  0.05705679    -0.36600
N276        N  0.30774728  0.96653439  0.00695098    -0.57200
C277        C  0.31201074  0.04336721  0.93543091     0.27000
C278        C  0.30593789  0.98906293  0.93647164     0.27000
C279        C  0.32297518  0.04482889  0.07624538     0.27000
C280        C  0.31660986  0.99054511  0.07642613     0.27000
C281        C  0.31762128  0.08728159  0.97871265     0.35600
C282        C  0.32297414  0.08806805  0.03278196     0.35600
C283        C  0.30185602  0.94636874  0.98026352     0.35600
C284        C  0.30650170  0.94671339  0.03416987     0.35600
C285        C  0.29921752  0.03378767  0.90446977    -0.21900
C286        C  0.29535115  0.99945207  0.90516048    -0.21900
C287        C  0.31141240  0.03629599  0.10770971    -0.21900
C288        C  0.30741214  0.00200015  0.10781331    -0.21900
C289        C  0.30935890  0.11930514  0.98928798    -0.23000
C290        C  0.31299860  0.11988640  0.02350036    -0.22900
C291        C  0.29295711  0.91461176  0.99089502    -0.23000
C292        C  0.29614761  0.91475045  0.02512275    -0.22900
C293        C  0.32058725  0.07659714  0.94492500    -0.18300
C294        C  0.30877435  0.95534613  0.94680551    -0.18300
C295        C  0.31757111  0.95650603  0.06640780    -0.18300
C296        C  0.33053781  0.07786576  0.06584021    -0.18300
H297        H  0.29266445  0.04992237  0.88378170     0.14600
H298        H  0.28553536  0.98391297  0.88506208     0.14600
H299        H  0.30518824  0.05314963  0.12806174     0.14600
H300        H  0.29754843  0.98735036  0.12822599     0.14600
H301        H  0.30041467  0.13981927  0.97412416     0.12900
H302        H  0.30738974  0.14091024  0.03974579     0.12900
H303        H  0.28598488  0.89326736  0.97548064     0.12900
H304        H  0.29208010  0.89356678  0.04142044     0.12900
H305        H  0.32779296  0.01508579  0.97774637     0.26200
H306        H  0.33628140  0.01517568  0.03358319     0.26200
N307        N  0.47854601  0.84683814  0.91740504    -0.27300
N308        N  0.44943570  0.83836625  0.93036687    -0.35200
C309        C  0.45407994  0.81471035  0.95365810     0.01000
C310        C  0.48776491  0.80764191  0.95578290     0.07100
C311        C  0.50256814  0.82839959  0.93224956    -0.06000
H312        H  0.43412777  0.80387172  0.96815833     0.07700
H313        H  0.52888805  0.83049610  0.92679486     0.08900
Cu314      Cu  0.40425166  0.86049141  0.91897378     0.44200
Cu315      Cu  0.48373732  0.88420918  0.88098097     0.42000
Cu316      Cu  0.40354246  0.91983184  0.85491052     0.43900
N317        N  0.36437556  0.89225437  0.91126977    -0.34700
N318        N  0.36376338  0.91412125  0.88678647    -0.28900
C319        C  0.34058157  0.93741585  0.89338763    -0.05000
C320        C  0.32555430  0.93037336  0.92401986     0.07200
C321        C  0.34175378  0.90113684  0.93423525     0.01000
H322        H  0.33917192  0.96047383  0.87950373     0.08600
H323        H  0.34166212  0.89015432  0.95884264     0.07700
N324        N  0.44905685  0.93384977  0.83559192    -0.36100
N325        N  0.47843808  0.92204221  0.84498829    -0.28300
C326        C  0.50238808  0.93886765  0.82829387    -0.03500
C327        C  0.48716337  0.96251579  0.80784165     0.05100
C328        C  0.45340722  0.95833482  0.81317889     0.03200
H329        H  0.52886481  0.93446227  0.83112380     0.08300
H330        H  0.43314472  0.97201733  0.80172753     0.07100
C331        C  0.50464696  0.04946527  0.24045247     0.86500
C332        C  0.50055960  0.02217326  0.21337599    -0.53800
C333        C  0.50403618  0.99035614  0.22475717     0.09400
C334        C  0.51110453  0.98844343  0.26222270     0.20400
C335        C  0.47957583  0.03966773  0.26810558    -0.54500
C336        C  0.48249832  0.00756635  0.27898802     0.09500
C337        C  0.53915057  0.04277699  0.25681517    -0.54000
C338        C  0.54232981  0.01039141  0.26849855     0.10100
H339        H  0.49248191  0.02749928  0.18793143     0.14600
H340        H  0.51310486  0.96228362  0.27080545     0.00300
H341        H  0.46061699  0.05651039  0.27767284     0.14900
H342        H  0.55844679  0.06173152  0.25971880     0.14700
N343        N  0.48366665  0.91717352  0.17306452    -0.27300
N344        N  0.45374951  0.92867657  0.18113187    -0.35200
C345        C  0.45704095  0.95563995  0.20102568     0.01000
C346        C  0.49041894  0.96162110  0.20600934     0.07100
C347        C  0.50686266  0.93680283  0.18821609    -0.06000
H348        H  0.43651287  0.97069939  0.21005448     0.07700
H349        H  0.53354102  0.93400162  0.18544603     0.08900
Cu350      Cu  0.40856358  0.91398451  0.16140878     0.44200
Cu351      Cu  0.49146068  0.87729022  0.13932388     0.42000
Cu352      Cu  0.41283178  0.85915946  0.09599746     0.43900
N353        N  0.37105199  0.91246566  0.12632262    -0.34700
N354        N  0.37329514  0.89238814  0.10024085    -0.28900
C355        C  0.35197877  0.90291528  0.07649870    -0.05000
C356        C  0.33500314  0.93124613  0.08813098     0.07200
C357        C  0.34835423  0.93634398  0.12007864     0.01000
H358        H  0.35244544  0.89342392  0.05109853     0.08600
H359        H  0.34565498  0.95810487  0.13596037     0.07700
N360        N  0.45623483  0.83134627  0.09078500    -0.36100
N361        N  0.48573371  0.83825077  0.10415666    -0.28300
C362        C  0.50869182  0.81778634  0.08991849    -0.03500
C363        C  0.49259838  0.79707683  0.06661936     0.05100
C364        C  0.45936090  0.80634003  0.06861713     0.03200
H365        H  0.53526730  0.81934613  0.09456416     0.08300
H366        H  0.43867236  0.79726442  0.05367916     0.07100
N367        N  0.48085757  0.18664960  0.90587599    -0.27300
N368        N  0.45099057  0.19550536  0.91680362    -0.35200
C369        C  0.45432747  0.21553823  0.94366404     0.01000
C370        C  0.48774348  0.21973302  0.95017491     0.07100
C371        C  0.50412621  0.20131660  0.92578290    -0.06000
H372        H  0.43380424  0.22501235  0.95842041     0.07700
H373        H  0.53076173  0.19773953  0.92351759     0.08900
Cu374      Cu  0.40611915  0.17561358  0.90140474     0.44200
Cu375      Cu  0.48778264  0.15229408  0.86645780     0.42000
Cu376      Cu  0.40780779  0.11280008  0.84289664     0.43900
N377        N  0.36928615  0.13978746  0.89978812    -0.34700
N378        N  0.37012278  0.11493861  0.87809084    -0.28900
C379        C  0.35019627  0.09014351  0.88897836    -0.05000
C380        C  0.33564143  0.09976858  0.91932376     0.07200
C381        C  0.34912187  0.13161570  0.92511381     0.01000
H382        H  0.35036895  0.06528824  0.87807172     0.08600
H383        H  0.34898500  0.14595153  0.94804891     0.07700
N384        N  0.45253713  0.10534590  0.81830547    -0.36100
N385        N  0.48216051  0.11690561  0.82765516    -0.28300
C386        C  0.50583994  0.09988974  0.81052889    -0.03500
C387        C  0.49011540  0.07658883  0.78966092     0.05100
C388        C  0.45643517  0.08149619  0.79499850     0.03200
H389        H  0.53238282  0.10227054  0.81503699     0.08300
H390        H  0.43592288  0.06691917  0.78488379     0.07100
N391        N  0.81654504  0.47246789  0.50663982    -0.36600
N392        N  0.81269941  0.52385342  0.45629476    -0.57200
N393        N  0.82697121  0.57432256  0.50734917    -0.36600
N394        N  0.82356055  0.52292094  0.55834492    -0.57200
C395        C  0.80656363  0.45417933  0.47982717     0.27000
C396        C  0.81167024  0.45337370  0.53398909     0.27000
C397        C  0.81865474  0.59356477  0.48078560     0.27000
C398        C  0.82327539  0.59345712  0.53523376     0.27000
C399        C  0.80743652  0.49698924  0.43611187     0.35600
C400        C  0.81206001  0.55105327  0.43635469     0.35600
C401        C  0.81866883  0.49590794  0.57802115     0.35600
C402        C  0.82266140  0.55010699  0.57864396     0.35600
C403        C  0.79389371  0.42367286  0.49031428    -0.21900
C404        C  0.79727609  0.42308874  0.52462219    -0.21900
C405        C  0.80807596  0.62466121  0.49201487    -0.21900
C406        C  0.81112732  0.62465111  0.52637235    -0.21900
C407        C  0.79973767  0.50746398  0.40402953    -0.23000
C408        C  0.80276066  0.54174481  0.40414025    -0.22900
C409        C  0.81132058  0.50620922  0.61027959    -0.23000
C410        C  0.81380742  0.54054350  0.61067593    -0.22900
C411        C  0.81167813  0.46331699  0.44617211    -0.18300
C412        C  0.82118380  0.46223691  0.56694623    -0.18300
C413        C  0.83014208  0.58323251  0.56846758    -0.18300
C414        C  0.82123978  0.58380596  0.44673359    -0.18300
H415        H  0.78374774  0.40376022  0.47473727     0.14600
H416        H  0.78996419  0.40275647  0.54086219     0.14600
H417        H  0.79798923  0.64484792  0.47712501     0.14600
H418        H  0.80387597  0.64483247  0.54301776     0.14600
H419        H  0.79238214  0.49207428  0.38281473     0.12900
H420        H  0.79834079  0.55795505  0.38295897     0.12900
H421        H  0.80335829  0.49084361  0.63098810     0.12900
H422        H  0.80839067  0.55663949  0.63185279     0.12900
H423        H  0.83078847  0.49423712  0.50579273     0.26200
H424        H  0.83856997  0.55105701  0.50613531     0.26200
N425        N  0.99175194  0.70145815  0.61738617    -0.27300
N426        N  0.96124302  0.71130483  0.60933237    -0.35200
C427        C  0.96288040  0.73613352  0.58718995     0.01000
C428        C  0.99579893  0.74284474  0.57929302     0.07100
C429        C  0.01352312  0.71972692  0.59880857    -0.06000
H430        H  0.94120833  0.74484356  0.57354925     0.07700
H431        H  0.03996552  0.71464455  0.59730265     0.08900
Cu432      Cu  0.91705253  0.68495892  0.61414228     0.44200
Cu433      Cu  0.00023001  0.66128907  0.65170379     0.42000
Cu434      Cu  0.91779239  0.62541696  0.66981051     0.43900
N435        N  0.88045910  0.64843438  0.61112678    -0.34700
N436        N  0.88112982  0.62466560  0.63360120    -0.28900
C437        C  0.86158999  0.59919893  0.62339680    -0.05000
C438        C  0.84668442  0.60734055  0.59278668     0.07200
C439        C  0.86014069  0.63897050  0.58579666     0.01000
H440        H  0.86220098  0.57503748  0.63536512     0.08600
H441        H  0.85890901  0.65227944  0.56236921     0.07700
N442        N  0.96030900  0.61621714  0.69714174    -0.36100
N443        N  0.99126116  0.62448282  0.68939485    -0.28300
C444        C  0.01197910  0.60449968  0.70758387    -0.03500
C445        C  0.99286541  0.58378354  0.72843268     0.05100
C446        C  0.96042408  0.59228696  0.72026090     0.03200
H447        H  0.03868771  0.60319804  0.70410715     0.08300
H448        H  0.93814097  0.57863483  0.72709824     0.07100
N449        N  0.46462747  0.81758553  0.50860025    -0.36600
N450        N  0.51564553  0.81356748  0.45801682    -0.57200
N451        N  0.56570963  0.83205047  0.50781155    -0.36600
N452        N  0.51504180  0.82870480  0.55957318    -0.57200
C453        C  0.44609228  0.80806910  0.48185201     0.27000
C454        C  0.44557859  0.81358541  0.53608432     0.27000
C455        C  0.58489919  0.82350646  0.48130628     0.27000
C456        C  0.58517083  0.83013534  0.53558282     0.27000
C457        C  0.48888926  0.80700375  0.43830991     0.35600
C458        C  0.54248517  0.81289038  0.43781080     0.35600
C459        C  0.48871773  0.82180701  0.57944768     0.35600
C460        C  0.54243108  0.82888025  0.57944107     0.35600
C461        C  0.41530160  0.79657777  0.49244341    -0.21900
C462        C  0.41497319  0.80002623  0.52678982    -0.21900
C463        C  0.61638552  0.81464002  0.49249124    -0.21900
C464        C  0.61659616  0.81890164  0.52672840    -0.21900
C465        C  0.49915158  0.79837763  0.40638536    -0.23000
C466        C  0.53318190  0.80221351  0.40601453    -0.22900
C467        C  0.49987393  0.81446326  0.61141780    -0.23000
C468        C  0.53384905  0.81906544  0.61146424    -0.22900
C469        C  0.45552682  0.81242951  0.44815360    -0.18300
C470        C  0.45485275  0.82314375  0.56902930    -0.18300
C471        C  0.57499707  0.83746640  0.56876126    -0.18300
C472        C  0.57464725  0.82415268  0.44731756    -0.18300
H473        H  0.39512166  0.78703546  0.47693817     0.14600
H474        H  0.39456470  0.79328223  0.54307418     0.14600
H475        H  0.63667630  0.80470900  0.47772457     0.14600
H476        H  0.63709216  0.81284912  0.54334834     0.14600
H477        H  0.48367199  0.79059079  0.38542996     0.12900
H478        H  0.54918677  0.79796427  0.38468150     0.12900
H479        H  0.48533927  0.80526842  0.63218791     0.12900
H480        H  0.55044097  0.81418070  0.63231844     0.12900
H481        H  0.48671253  0.83109105  0.50749101     0.26200
H482        H  0.54207994  0.84265063  0.50648157     0.26200
N483        N  0.68990630  0.00188992  0.61537363    -0.27300
N484        N  0.70048291  0.97140351  0.60775257    -0.35200
C485        C  0.72436462  0.97333517  0.58478848     0.01000
C486        C  0.72960465  0.00643142  0.57591341     0.07100
C487        C  0.70670088  0.02394253  0.59577531    -0.06000
H488        H  0.73313256  0.95150930  0.57127549     0.07700
H489        H  0.70062013  0.05026228  0.59379525     0.08900
Cu490      Cu  0.67534546  0.92655540  0.61350949     0.44200
Cu491      Cu  0.65068350  0.00954177  0.65034015     0.42000
Cu492      Cu  0.61707310  0.92593665  0.67026252     0.43900
N493        N  0.63930030  0.88948350  0.61066044    -0.34700
N494        N  0.61601291  0.88950034  0.63354632    -0.28900
C495        C  0.59091797  0.86936874  0.62360431    -0.05000
C496        C  0.59883990  0.85482994  0.59271939     0.07200
C497        C  0.62986139  0.86913877  0.58528520     0.01000
H498        H  0.56710794  0.86911170  0.63607131     0.08600
H499        H  0.64277089  0.86835590  0.56164142     0.07700
N500        N  0.60897537  0.96867102  0.69808360    -0.36100
N501        N  0.61621647  0.99979852  0.68950208    -0.28300
C502        C  0.59677871  0.02057567  0.70810616    -0.03500
C503        C  0.57745650  0.00143039  0.73008694     0.05100
C504        C  0.58626540  0.96880654  0.72234074     0.03200
H505        H  0.59465104  0.04726889  0.70400894     0.08300
H506        H  0.57320696  0.94638692  0.73005212     0.07100
C507        C  0.24832972  0.04927583  0.50403413     0.86500
C508        C  0.26485471  0.04166441  0.53834512    -0.53800
C509        C  0.27637879  0.00911601  0.54057607     0.09400
C510        C  0.26989430  0.98799153  0.50868964     0.20400
C511        C  0.27567086  0.03987262  0.47836751    -0.54500
C512        C  0.28645913  0.00764869  0.48033863     0.09500
C513        C  0.22123483  0.02225839  0.49948245    -0.54000
C514        C  0.23252996  0.99033258  0.50204615     0.10100
H515        H  0.26778197  0.06008736  0.55826510     0.14600
H516        H  0.27826605  0.96171795  0.50993755     0.00300
H517        H  0.28520272  0.05712821  0.45979867     0.14900
H518        H  0.19579845  0.02790140  0.49184854     0.14700
N519        N  0.96133787  0.02016387  0.31395107    -0.36600
N520        N  0.01238630  0.96881510  0.30999471    -0.57200
N521        N  0.06236986  0.01817316  0.32760093    -0.36600
N522        N  0.01168658  0.07072061  0.32447818    -0.57200
C523        C  0.94320772  0.99373738  0.30286403     0.27000
C524        C  0.94253962  0.04784766  0.30944193     0.27000
C525        C  0.08139941  0.99146753  0.31902890     0.27000
C526        C  0.08159467  0.04589872  0.32415424     0.27000
C527        C  0.98556975  0.94960304  0.30247436     0.35600
C528        C  0.03894474  0.94808673  0.30987960     0.35600
C529        C  0.98527606  0.09109649  0.31907350     0.35600
C530        C  0.03918984  0.09038557  0.32452968     0.35600
C531        C  0.91305768  0.00472846  0.28999920    -0.21900
C532        C  0.91262259  0.03901768  0.29413828    -0.21900
C533        C  0.11238922  0.00245612  0.30856224    -0.21900
C534        C  0.11254123  0.03680534  0.31184788    -0.21900
C535        C  0.99558016  0.91750225  0.29397140    -0.23000
C536        C  0.02946685  0.91647072  0.29881108    -0.22900
C537        C  0.99641404  0.12323166  0.31243589    -0.23000
C538        C  0.03050439  0.12279926  0.31592790    -0.22900
C539        C  0.95221945  0.95988689  0.30700343    -0.18300
C540        C  0.95142760  0.08063565  0.31976510    -0.18300
C541        C  0.07194407  0.07918624  0.33183935    -0.18300
C542        C  0.07131138  0.95747425  0.32049047    -0.18300
H543        H  0.89335946  0.98950384  0.27908682     0.14600
H544        H  0.89263171  0.05559123  0.28665316     0.14600
H545        H  0.13236402  0.98742483  0.29833284     0.14600
H546        H  0.13274607  0.05333039  0.30480226     0.14600
H547        H  0.97994960  0.89683314  0.28571738     0.12900
H548        H  0.04527180  0.89497766  0.29436890     0.12900
H549        H  0.98189031  0.14431737  0.30381621     0.12900
H550        H  0.04706062  0.14359258  0.31081991     0.12900
H551        H  0.98283884  0.01863141  0.32846488     0.26200
H552        H  0.03914481  0.01714800  0.33906962     0.26200
N553        N  0.92073773  0.85997357  0.47929401    -0.27300
N554        N  0.93342511  0.85116693  0.45006965    -0.35200
C555        C  0.95751367  0.82846627  0.45474669     0.01000
C556        C  0.96046365  0.82229284  0.48861675     0.07100
C557        C  0.93654000  0.84259158  0.50353614    -0.06000
H558        H  0.97154964  0.81725543  0.43457256     0.07700
H559        H  0.93115923  0.84475698  0.52997042     0.08900
Cu560      Cu  0.92009345  0.87081512  0.40444866     0.44200
Cu561      Cu  0.88310205  0.89597341  0.48350252     0.42000
Cu562      Cu  0.85853024  0.93156371  0.40173785     0.43900
N563        N  0.91299518  0.90036380  0.36308825    -0.34700
N564        N  0.88987032  0.92360001  0.36194277    -0.28900
C565        C  0.89776619  0.94582344  0.33816469    -0.05000
C566        C  0.92790249  0.93651256  0.32343110     0.07200
C567        C  0.93629954  0.90710859  0.34022775     0.01000
H568        H  0.88537720  0.96972026  0.33618661     0.08600
H569        H  0.96016263  0.89472345  0.34064668     0.07700
N570        N  0.83770318  0.94442801  0.44696249    -0.36100
N571        N  0.84635839  0.93250432  0.47660048    -0.28300
C572        C  0.82797027  0.94806051  0.50016896    -0.03500
C573        C  0.80707695  0.97089167  0.48444904     0.05100
C574        C  0.81401073  0.96773575  0.45079713     0.03200
H575        H  0.82984935  0.94318517  0.52672250     0.08300
H576        H  0.80272722  0.98117956  0.43025273     0.07100
C577        C  0.04298779  0.24969855  0.50326654     0.86500
C578        C  0.01602441  0.22251764  0.49840455    -0.53800
C579        C  0.98424204  0.23395376  0.50117255     0.09400
C580        C  0.98209032  0.27149291  0.50816969     0.20400
C581        C  0.03370666  0.27742361  0.47783420    -0.54500
C582        C  0.00168179  0.28839233  0.48002995     0.09500
C583        C  0.03551260  0.26605020  0.53764525    -0.54000
C584        C  0.00326135  0.27777847  0.54000253     0.10100
H585        H  0.02160406  0.19700656  0.49056922     0.14600
H586        H  0.95599655  0.28008733  0.50949709     0.00300
H587        H  0.05091942  0.28724998  0.45942557     0.14900
H588        H  0.05398079  0.26910300  0.55741228     0.14700
N589        N  0.91087432  0.18298000  0.48059473    -0.27300
N590        N  0.92039372  0.19374682  0.45083350    -0.35200
C591        C  0.94740706  0.21332963  0.45421375     0.01000
C592        C  0.95561105  0.21515591  0.48757190     0.07100
C593        C  0.93193706  0.19590947  0.50391375    -0.06000
H594        H  0.96090538  0.22439123  0.43363082     0.07700
H595        H  0.93057364  0.19108959  0.53049832     0.08900
Cu596      Cu  0.90276376  0.17694303  0.40548220     0.44200
Cu597      Cu  0.87072436  0.14957270  0.48660460     0.42000
Cu598      Cu  0.84625652  0.11255209  0.40504686     0.43900
N599        N  0.90277497  0.14206737  0.36765194    -0.34700
N600        N  0.88201417  0.11652158  0.36761952    -0.28900
C601        C  0.89432631  0.09241218  0.34750294    -0.05000
C602        C  0.92474188  0.10313180  0.33405582     0.07200
C603        C  0.92893563  0.13496423  0.34810932     0.01000
H604        H  0.88441283  0.06718568  0.34694341     0.08600
H605        H  0.95130518  0.14995242  0.34895793     0.07700
N606        N  0.82007956  0.10662149  0.44960080    -0.36100
N607        N  0.82954207  0.11751974  0.47957620    -0.28300
C608        C  0.81025265  0.10258524  0.50292238    -0.03500
C609        C  0.78765591  0.08135443  0.48677424     0.05100
C610        C  0.79448281  0.08528345  0.45303224     0.03200
H611        H  0.81432533  0.10473391  0.52965372     0.08300
H612        H  0.78363400  0.07150158  0.43226467     0.07100
N613        N  0.18016558  0.91821780  0.48100122    -0.27300
N614        N  0.18926239  0.92901361  0.45110451    -0.35200
C615        C  0.20951403  0.95556235  0.45461568     0.01000
C616        C  0.21358232  0.96196275  0.48818155     0.07100
C617        C  0.19487538  0.93788493  0.50448734    -0.06000
H618        H  0.21939656  0.97007549  0.43410296     0.07700
H619        H  0.19134506  0.93552055  0.53120546     0.08900
Cu620      Cu  0.16994127  0.91360036  0.40592890     0.44200
Cu621      Cu  0.14610170  0.87890551  0.48776262     0.42000
Cu622      Cu  0.10729459  0.85456449  0.40798091     0.43900
N623        N  0.13424939  0.91187884  0.36907965    -0.34700
N624        N  0.10940960  0.89034907  0.37028955    -0.28900
C625        C  0.08457757  0.90150271  0.35053973    -0.05000
C626        C  0.09423623  0.93168696  0.33563990     0.07200
C627        C  0.12611345  0.93719743  0.34867890     0.01000
H628        H  0.05974457  0.89093880  0.35114506     0.08600
H629        H  0.14058413  0.95999681  0.34778472     0.07700
N630        N  0.10042606  0.82953784  0.45305736    -0.36100
N631        N  0.11183235  0.83941518  0.48267962    -0.28300
C632        C  0.09546624  0.82226365  0.50674670    -0.03500
C633        C  0.07272671  0.80063852  0.49138788     0.05100
C634        C  0.07735065  0.80566195  0.45739820     0.03200
H635        H  0.09774087  0.82737425  0.53329924     0.08300
H636        H  0.06291656  0.79501395  0.43699402     0.07100
N637        N  0.41245617  0.98606492  0.67775033    -0.27300
N638        N  0.42386477  0.95611742  0.68613961    -0.35200
C639        C  0.45018479  0.95961795  0.70664942     0.01000
C640        C  0.45581065  0.99321924  0.71167807     0.07100
C641        C  0.43149538  0.00955798  0.69322742    -0.06000
H642        H  0.46525423  0.93912100  0.71581106     0.07700
H643        H  0.42881024  0.03633326  0.69006012     0.08900
Cu644      Cu  0.40991142  0.91100328  0.66544421     0.44200
Cu645      Cu  0.37370454  0.99292934  0.64296236     0.42000
Cu646      Cu  0.35303578  0.91240027  0.60170677     0.43900
N647        N  0.40871440  0.87315983  0.63054250    -0.34700
N648        N  0.38770523  0.87386995  0.60521269    -0.28900
C649        C  0.39893162  0.85315089  0.58109929    -0.05000
C650        C  0.42884721  0.83838505  0.59163556     0.07200
C651        C  0.43390769  0.85234518  0.62338709     0.01000
H652        H  0.38872443  0.85298736  0.55599925     0.08600
H653        H  0.45634810  0.85209647  0.63831481     0.07700
N654        N  0.32711205  0.95704007  0.59514968    -0.36100
N655        N  0.33522362  0.98680495  0.60762597    -0.28300
C656        C  0.31649714  0.01037774  0.59214304    -0.03500
C657        C  0.29571616  0.99451482  0.56890114     0.05100
C658        C  0.30298268  0.96075055  0.57221292     0.03200
H659        H  0.31951934  0.03712078  0.59576452     0.08300
H660        H  0.29324864  0.94010530  0.55746593     0.07100
N661        N  0.98309198  0.41755404  0.67493965    -0.27300
N662        N  0.95293412  0.42755990  0.68389522    -0.35200
C663        C  0.95541062  0.45383267  0.70473238     0.01000
C664        C  0.98853188  0.46114699  0.70929023     0.07100
C665        C  0.00574611  0.43771177  0.69028726    -0.06000
H666        H  0.93442921  0.46790845  0.71426764     0.07700
H667        H  0.03245633  0.43626854  0.68684438     0.08900
Cu668      Cu  0.90850347  0.41332653  0.66269073     0.44200
Cu669      Cu  0.99062821  0.37870457  0.63996807     0.42000
Cu670      Cu  0.90981185  0.35913303  0.59816389     0.43900
N671        N  0.87147542  0.41484829  0.62723914    -0.34700
N672        N  0.87199947  0.39426905  0.60149162    -0.28900
C673        C  0.85144807  0.40609373  0.57764039    -0.05000
C674        C  0.83697958  0.43600425  0.58885214     0.07200
C675        C  0.85107267  0.44056118  0.62058385     0.01000
H676        H  0.85088885  0.39614107  0.55240784     0.08600
H677        H  0.85085157  0.46283955  0.63596241     0.07700
N678        N  0.95341817  0.33180494  0.59311336    -0.36100
N679        N  0.98325820  0.33936377  0.60542075    -0.28300
C680        C  0.00602561  0.31921762  0.59054894    -0.03500
C681        C  0.98948952  0.29814761  0.56797856     0.05100
C682        C  0.95623081  0.30669229  0.57102708     0.03200
H683        H  0.03272514  0.32144080  0.59405169     0.08300
H684        H  0.93535601  0.29722065  0.55656711     0.07100
N685        N  0.19216093  0.12182214  0.49418644    -0.27300
N686        N  0.20148279  0.11453728  0.46326370    -0.35200
C687        C  0.22630947  0.09242656  0.46391683     0.01000
C688        C  0.23363124  0.08367130  0.49661129     0.07100
C689        C  0.21085271  0.10274954  0.51527798    -0.06000
H690        H  0.23447205  0.07931734  0.44163858     0.07700
H691        H  0.20624487  0.10052683  0.54183549     0.08900
Cu692      Cu  0.17441305  0.12010303  0.41962230     0.44200
Cu693      Cu  0.15221678  0.15606745  0.50348738     0.42000
Cu694      Cu  0.11851768  0.17832600  0.42032630     0.43900
N695        N  0.13822769  0.11885576  0.38275267    -0.34700
N696        N  0.11565988  0.14249961  0.38331756    -0.28900
C697        C  0.08989181  0.13353050  0.36361816    -0.05000
C698        C  0.09668105  0.10251422  0.34869069     0.07200
C699        C  0.12774309  0.09398005  0.36236441     0.01000
H700        H  0.06641573  0.14666345  0.36413816     0.08600
H701        H  0.13990058  0.06988297  0.36129374     0.07700
N702        N  0.11044501  0.20492550  0.46357663    -0.36100
N703        N  0.11712246  0.19535535  0.49451957    -0.28300
C704        C  0.09677544  0.21303675  0.51527326    -0.03500
C705        C  0.07744672  0.23535003  0.49628492     0.05100
C706        C  0.08728649  0.22879481  0.46380805     0.03200
H707        H  0.09403077  0.20804825  0.54170902     0.08300
H708        H  0.07459999  0.23681029  0.44127000     0.07100
N709        N  0.67534039  0.98951102  0.40974714    -0.27300
N710        N  0.68610905  0.95981626  0.41980520    -0.35200
C711        C  0.70598921  0.96374530  0.44664319     0.01000
C712        C  0.70802645  0.99734588  0.45406780     0.07100
C713        C  0.68858965  0.01322303  0.43019954    -0.06000
H714        H  0.71709948  0.94340439  0.46057935     0.07700
H715        H  0.68370370  0.03981064  0.42840278     0.08900
Cu716      Cu  0.66951565  0.91379288  0.40321770     0.44200
Cu717      Cu  0.64120380  0.99608083  0.37013100     0.42000
Cu718      Cu  0.60429204  0.91595846  0.34695598     0.43900
N719        N  0.63477660  0.87593836  0.40171034    -0.34700
N720        N  0.60894572  0.87747387  0.38137803    -0.28900
C721        C  0.58512477  0.85671534  0.39260843    -0.05000
C722        C  0.59643757  0.84073742  0.42160250     0.07200
C723        C  0.62826293  0.85420767  0.42637572     0.01000
H724        H  0.55986743  0.85713485  0.38303014     0.08600
H725        H  0.64382958  0.85252888  0.44838191     0.07700
N726        N  0.59701486  0.96002620  0.32058392    -0.36100
N727        N  0.60786046  0.99008398  0.32969390    -0.28300
C728        C  0.59231338  0.01327719  0.31050423    -0.03500
C729        C  0.57078654  0.99677189  0.28834039     0.05100
C730        C  0.57518171  0.96309417  0.29534582     0.03200
H731        H  0.59452999  0.04009217  0.31416267     0.08300
H732        H  0.56169266  0.94204556  0.28473081     0.07100
N733        N  0.98249008  0.69423353  0.41117039    -0.27300
N734        N  0.95240921  0.70257655  0.42202957    -0.35200
C735        C  0.95537330  0.72139340  0.44977076     0.01000
C736        C  0.98867414  0.72523171  0.45686260     0.07100
C737        C  0.00542908  0.70816037  0.43188803    -0.06000
H738        H  0.93465497  0.73038337  0.46455331     0.07700
H739        H  0.03211250  0.70485986  0.42976487     0.08900
Cu740      Cu  0.90729534  0.68388330  0.40587640     0.44200
Cu741      Cu  0.99137128  0.66081684  0.37154571     0.42000
Cu742      Cu  0.91282834  0.62066883  0.34912324     0.43900
N743        N  0.87078561  0.64781602  0.40363013    -0.34700
N744        N  0.87352905  0.62263593  0.38250986    -0.28900
C745        C  0.85384188  0.59746630  0.39275126    -0.05000
C746        C  0.83719705  0.60718253  0.42192779     0.07200
C747        C  0.84928811  0.63954511  0.42790378     0.01000
H748        H  0.85560489  0.57243627  0.38244060     0.08600
H749        H  0.84691383  0.65430956  0.45045394     0.07700
N750        N  0.95752453  0.61262920  0.32466576    -0.36100
N751        N  0.98709136  0.62448648  0.33366564    -0.28300
C752        C  0.01082812  0.60748158  0.31652539    -0.03500
C753        C  0.99508992  0.58394146  0.29586818     0.05100
C754        C  0.96140464  0.58870342  0.30149874     0.03200
H755        H  0.03739779  0.61030719  0.32059678     0.08300
H756        H  0.94078284  0.57433421  0.29134938     0.07100
N757        N  0.68045322  0.41403852  0.98127969    -0.27300
N758        N  0.68874102  0.42758504  0.95232402    -0.35200
C759        C  0.70923453  0.45370662  0.95768398     0.01000
C760        C  0.71444579  0.45704335  0.99165708     0.07100
C761        C  0.69603341  0.43129188  0.00595755    -0.06000
H762        H  0.71944591  0.46906094  0.93799813     0.07700
H763        H  0.69369491  0.42576557  0.03232094     0.08900
Cu764      Cu  0.66999564  0.41427567  0.90625644     0.44200
Cu765      Cu  0.64669200  0.37405554  0.98582400     0.42000
Cu766      Cu  0.60835961  0.35391035  0.90461947     0.43900
N767        N  0.63677539  0.41130118  0.86721740    -0.34700
N768        N  0.61248337  0.38911454  0.86674971    -0.28900
C769        C  0.58855175  0.39975845  0.84564853    -0.05000
C770        C  0.59809389  0.43049582  0.83184551     0.07200
C771        C  0.62909543  0.43662451  0.84673086     0.01000
H772        H  0.56399899  0.38855124  0.84482193     0.08600
H773        H  0.64273025  0.45993503  0.84757017     0.07700
N774        N  0.59875446  0.32859806  0.94885921    -0.36100
N775        N  0.61061093  0.33641593  0.97890263    -0.28300
C776        C  0.59354383  0.31866507  0.00203680    -0.03500
C777        C  0.56984264  0.29892634  0.98557191     0.05100
C778        C  0.57448061  0.30573819  0.95195936     0.03200
H779        H  0.59643274  0.32179155  0.02882710     0.08300
H780        H  0.55985545  0.29656920  0.93100215     0.07100
N781        N  0.49254462  0.19660114  0.11083422    -0.27300
N782        N  0.46178222  0.20599370  0.10340324    -0.35200
C783        C  0.46255655  0.23064710  0.08105609     0.01000
C784        C  0.49520823  0.23778958  0.07251571     0.07100
C785        C  0.51368966  0.21506166  0.09176755    -0.06000
H786        H  0.44046321  0.23892783  0.06784012     0.07700
H787        H  0.54017396  0.21038064  0.08978597     0.08900
Cu788      Cu  0.41849087  0.17889487  0.10977620     0.44200
Cu789      Cu  0.50150533  0.15684188  0.14520557     0.42000
Cu790      Cu  0.41883274  0.12067570  0.16695075     0.43900
N791        N  0.38190861  0.14251737  0.10775018    -0.34700
N792        N  0.38193145  0.11923988  0.13075100    -0.28900
C793        C  0.36168732  0.09407071  0.12094965    -0.05000
C794        C  0.34739811  0.10192437  0.08994585     0.07200
C795        C  0.36175186  0.13297699  0.08241453     0.01000
H796        H  0.36109626  0.07019497  0.13351832     0.08600
H797        H  0.36135728  0.14577573  0.05869182     0.07700
N798        N  0.46235047  0.11423664  0.19393095    -0.36100
N799        N  0.49301289  0.12212954  0.18472654    -0.28300
C800        C  0.51443899  0.10325474  0.20319069    -0.03500
C801        C  0.49625486  0.08361166  0.22574641     0.05100
C802        C  0.46346220  0.09175486  0.21845994     0.03200
H803        H  0.54095801  0.10164586  0.19860419     0.08300
H804        H  0.44155424  0.07822480  0.22659474     0.07100
N805        N  0.41632914  0.67788699  0.98131684    -0.27300
N806        N  0.42675476  0.68780684  0.95156148    -0.35200
C807        C  0.45380404  0.70722867  0.95523975     0.01000
C808        C  0.46095105  0.70989129  0.98876217     0.07100
C809        C  0.43668848  0.69134397  0.00492070    -0.06000
H810        H  0.46774432  0.71802702  0.93481362     0.07700
H811        H  0.43432793  0.68748397  0.03159284     0.08900
Cu812      Cu  0.40941081  0.67167081  0.90586339     0.44200
Cu813      Cu  0.37592917  0.64519171  0.98738850     0.42000
Cu814      Cu  0.35266930  0.60814459  0.90557210     0.43900
N815        N  0.40786597  0.63832668  0.86674611    -0.34700
N816        N  0.38727185  0.61266225  0.86720492    -0.28900
C817        C  0.39874681  0.58899016  0.84615027    -0.05000
C818        C  0.42828342  0.60025688  0.83128940     0.07200
C819        C  0.43294321  0.63190322  0.84556716     0.01000
H820        H  0.38904637  0.56368532  0.84584274     0.08600
H821        H  0.45517800  0.64713883  0.84508716     0.07700
N822        N  0.32562942  0.60298286  0.94961686    -0.36100
N823        N  0.33458045  0.61390597  0.97972214    -0.28300
C824        C  0.31423767  0.59987136  0.00268266    -0.03500
C825        C  0.29143201  0.57925837  0.98609637     0.05100
C826        C  0.29928057  0.58255922  0.95253093     0.03200
H827        H  0.31754808  0.60232492  0.02949282     0.08300
H828        H  0.28845496  0.56909523  0.93155480     0.07100
N829        N  0.19004839  0.50515651  0.11469873    -0.27300
N830        N  0.20036097  0.47435840  0.10808670    -0.35200
C831        C  0.22400831  0.47512952  0.08483442     0.01000
C832        C  0.22963409  0.50777091  0.07487077     0.07100
C833        C  0.20699452  0.52628547  0.09421773    -0.06000
H834        H  0.23254800  0.45270358  0.07219567     0.07700
H835        H  0.20133644  0.55262734  0.09144487     0.08900
Cu836      Cu  0.17567439  0.42998641  0.11636962     0.44200
Cu837      Cu  0.15127576  0.51406061  0.15009078     0.42000
Cu838      Cu  0.11811833  0.43083424  0.17348393     0.43900
N839        N  0.14008644  0.39277989  0.11475287    -0.34700
N840        N  0.11696950  0.39329735  0.13779641    -0.28900
C841        C  0.09161020  0.37340673  0.12812831    -0.05000
C842        C  0.09915975  0.35863977  0.09723560     0.07200
C843        C  0.13028816  0.37243740  0.08954249     0.01000
H844        H  0.06779349  0.37373517  0.14058611     0.08600
H845        H  0.14289758  0.37159293  0.06573495     0.07700
N846        N  0.11069063  0.47457703  0.20013547    -0.36100
N847        N  0.11796578  0.50544049  0.19067679    -0.28300
C848        C  0.09948628  0.52682248  0.20964643    -0.03500
C849        C  0.08070526  0.50840706  0.23273949     0.05100
C850        C  0.08884893  0.47550027  0.22517632     0.03200
H851        H  0.09753899  0.55345551  0.20511494     0.08300
H852        H  0.07590226  0.45333817  0.23372475     0.07100
N853        N  0.97908461  0.35405213  0.41978359    -0.27300
N854        N  0.94950207  0.34531342  0.43145224    -0.35200
C855        C  0.95321293  0.32101311  0.45421610     0.01000
C856        C  0.98674706  0.31367581  0.45730530     0.07100
C857        C  0.00249477  0.33505470  0.43493986    -0.06000
H858        H  0.93267517  0.30964137  0.46744375     0.07700
H859        H  0.02899008  0.33696775  0.43030516     0.08900
Cu860      Cu  0.90460949  0.36705326  0.41849706     0.44200
Cu861      Cu  0.98545897  0.39190267  0.38399438     0.42000
Cu862      Cu  0.90577729  0.42579436  0.35442633     0.43900
N863        N  0.86500305  0.39880622  0.40995871    -0.34700
N864        N  0.86555573  0.42105111  0.38583498    -0.28900
C865        C  0.84342464  0.44525536  0.39266588    -0.05000
C866        C  0.82755902  0.43821117  0.42288331     0.07200
C867        C  0.84225055  0.40805689  0.43266575     0.01000
H868        H  0.84372706  0.46873546  0.37946894     0.08600
H869        H  0.84112957  0.39661993  0.45704759     0.07700
N870        N  0.95168666  0.44025261  0.33655596    -0.36100
N871        N  0.98089703  0.42921011  0.34734909    -0.28300
C872        C  0.00517817  0.44640721  0.33152953    -0.03500
C873        C  0.99030966  0.46951878  0.31025515     0.05100
C874        C  0.95645413  0.46462881  0.31412005     0.03200
H875        H  0.03161273  0.44272902  0.33560358     0.08300
H876        H  0.93643144  0.47783671  0.30170033     0.07100
N877        N  0.34765920  0.98382314  0.41610460    -0.27300
N878        N  0.34150203  0.95469990  0.43047402    -0.35200
C879        C  0.31930610  0.95893300  0.45508812     0.01000
C880        C  0.31064060  0.99238397  0.45668109     0.07100
C881        C  0.32904390  0.00751910  0.43141145    -0.06000
H882        H  0.31036529  0.93876034  0.47061171     0.07700
H883        H  0.32919017  0.03378888  0.42485783     0.08900
Cu884      Cu  0.36398589  0.90983696  0.41872344     0.44200
Cu885      Cu  0.38232606  0.98881812  0.37719324     0.42000
Cu886      Cu  0.42239160  0.90822516  0.35515164     0.43900
N887        N  0.39451021  0.86910072  0.41140457    -0.34700
N888        N  0.41682556  0.86854245  0.38744533    -0.28900
C889        C  0.43970985  0.84512606  0.39446980    -0.05000
C890        C  0.43164389  0.82964440  0.42469568     0.07200
C891        C  0.40237285  0.84590632  0.43425409     0.01000
H892        H  0.46303532  0.84396090  0.38122888     0.08600
H893        H  0.39061133  0.84521608  0.45848328     0.07700
N894        N  0.43349107  0.95372180  0.33357237    -0.36100
N895        N  0.41984131  0.98296536  0.34112170    -0.28300
C896        C  0.43498232  0.00691249  0.32285980    -0.03500
C897        C  0.45939848  0.99190026  0.30326960     0.05100
C898        C  0.45751455  0.95822121  0.31081292     0.03200
H899        H  0.42896284  0.03330338  0.32414309     0.08300
H900        H  0.47246117  0.93809262  0.30070857     0.07100
N901        N  0.41807445  0.35509794  0.97420213    -0.27300
N902        N  0.42944329  0.34563627  0.94456634    -0.35200
C903        C  0.45297084  0.32219030  0.94859387     0.01000
C904        C  0.45702214  0.31630059  0.98236163     0.07100
C905        C  0.43426590  0.33742167  0.99796929    -0.06000
H906        H  0.46632551  0.31066309  0.92811546     0.07700
H907        H  0.43022898  0.34023552  0.02459647     0.08900
Cu908      Cu  0.41722128  0.36644531  0.89907053     0.44200
Cu909      Cu  0.38207061  0.39273163  0.98055844     0.42000
Cu910      Cu  0.36212224  0.43319120  0.90146736     0.43900
N911        N  0.41335225  0.39937349  0.85979301    -0.34700
N912        N  0.39246412  0.42467030  0.86097705    -0.28900
C913        C  0.40145278  0.44747768  0.83828778    -0.05000
C914        C  0.42984491  0.43637357  0.82151515     0.07200
C915        C  0.43632491  0.40537089  0.83621196     0.01000
H916        H  0.39123495  0.47247766  0.83842676     0.08600
H917        H  0.45873902  0.39062905  0.83405512     0.07700
N918        N  0.33933963  0.44451411  0.94613734    -0.36100
N919        N  0.34621639  0.43062561  0.97533302    -0.28300
C920        C  0.32679037  0.44509208  0.99883429    -0.03500
C921        C  0.30704667  0.46925978  0.98347400     0.05100
C922        C  0.31582796  0.46797399  0.95011646     0.03200
H923        H  0.32717121  0.43860830  0.02508970     0.08300
H924        H  0.30600883  0.48285011  0.92982847     0.07100
loop_ 
_geom_bond_atom_site_label_1 
_geom_bond_atom_site_label_2 
_geom_bond_distance 
_geom_bond_site_symmetry_2 
_ccdc_geom_bond_type 
C1            C2   1.549       .  S
C1            C7   1.538       .  S
C1            C5   1.540       .  S
C1          C175   1.517       .  S
C2            H9   1.085       .  S
C2            C3   1.381       .  D
C3            C4   1.552   1_554  S
C3          C257   1.494       .  S
C4            C8   1.528       .  S
C4            C6   1.536   1_556  S
C4           H10   1.104       .  S
C5           H11   1.085       .  S
C5            C6   1.355       .  D
C6          C760   1.478   1_554  S
C7           H12   1.087       .  S
C7            C8   1.359   1_554  D
C8          C139   1.472       .  S
C13          C14   1.536   1_554  S
C13          C19   1.553       .  S
C13          C17   1.551   1_554  S
C13         C240   1.527   1_554  S
C14          H21   1.087       .  S
C14          C15   1.357   1_556  D
C15          C16   1.523       .  S
C15         C808   1.464   1_554  S
C16          C20   1.543       .  S
C16          C18   1.532   1_554  S
C16          H22   1.102       .  S
C17          H23   1.085       .  S
C17          C18   1.360       .  D
C18         C310   1.486       .  S
C19          H24   1.085       .  S
C19          C20   1.383       .  D
C20         C363   1.494       .  S
C25          C26   1.539   1_455  S
C25          C31   1.549       .  S
C25          C29   1.550   1_455  S
C25         C445   1.526   1_455  S
C26          H33   1.087       .  S
C26          C27   1.360   1_655  D
C27          C28   1.523       .  S
C27         C664   1.466   1_455  S
C28          C32   1.543       .  S
C28          C30   1.535   1_455  S
C28          H34   1.104       .  S
C29          H35   1.085       .  S
C29          C30   1.359       .  D
C30         C122   1.488       .  S
C31          H36   1.085       .  S
C31          C32   1.382       .  D
C32         C199   1.488       .  S
C37          C38   1.546       .  S
C37          C43   1.538       .  S
C37          C41   1.548   1_545  S
C37         C503   1.520       .  S
C38          H45   1.085       .  S
C38          C39   1.379       .  D
C39          C40   1.544       .  S
C39         C387   1.486       .  S
C40          C44   1.523       .  S
C40          C42   1.535   1_545  S
C40          H46   1.105       .  S
C41          H47   1.085       .  S
C41          C42   1.361       .  D
C42         C327   1.485       .  S
C43          H48   1.087   1_545  S
C43          C44   1.359       .  D
C44         C640   1.466   1_545  S
C49          C50   1.539       .  S
C49          C55   1.550       .  S
C49          C53   1.545   1_545  S
C49         C486   1.523       .  S
C50          H57   1.087   1_545  S
C50          C51   1.359       .  D
C51          C52   1.524       .  S
C51         C712   1.468   1_545  S
C52          C56   1.542       .  S
C52          C54   1.533   1_545  S
C52          H58   1.104       .  S
C53          H59   1.085       .  S
C53          C54   1.357       .  D
C54         C573   1.479       .  S
C55          H60   1.085       .  S
C55          C56   1.383       .  D
C56         C609   1.489       .  S
C61          C62   1.552       .  S
C61          C67   1.539   1_455  S
C61          C65   1.549   1_455  S
C61         C428   1.525   1_455  S
C62          H69   1.085       .  S
C62          C63   1.382       .  D
C63          C64   1.540       .  S
C63         C633   1.489       .  S
C64          C68   1.518       .  S
C64          C66   1.533   1_455  S
C64          H70   1.104       .  S
C65          H71   1.085       .  S
C65          C66   1.360       .  D
C66         C556   1.483       .  S
C67          H72   1.087       .  S
C67          C68   1.358   1_655  D
C68         C736   1.462   1_455  S
C73          C74   1.537       .  S
C73          C79   1.548       .  S
C73          C77   1.550       .  S
C73         C832   1.523       .  S
C74          H81   1.087       .  S
C74          C75   1.359   1_554  D
C75          C76   1.523       .  S
C75         C182   1.467       .  S
C76          C80   1.541       .  S
C76          C78   1.533       .  S
C76          H82   1.103       .  S
C77          H83   1.085       .  S
C77          C78   1.360   1_554  D
C78         C921   1.484       .  S
C79          H84   1.085       .  S
C79          C80   1.381   1_554  D
C80         C825   1.486       .  S
N85          C90   1.352       .  A
N85          C89   1.350   1_554  A
N85         H117   1.038       .  S
N86          C93   1.350   1_455  A
N86          C94   1.350       .  A
N87          C92   1.354       .  A
N87          C91   1.354   1_554  A
N87         H118   1.040       .  S
N88          C95   1.352   1_455  A
N88          C96   1.351       .  A
C89          C97   1.384   1_556  A
C89         C105   1.411       .  A
C90         C106   1.414       .  A
C90          C98   1.386       .  A
C91          C99   1.384       .  A
C91         C108   1.416       .  A
C92         C107   1.416       .  A
C92         C100   1.385       .  A
C93         C105   1.413       .  A
C93         C101   1.384       .  A
C94         C108   1.413       .  A
C94         C102   1.385       .  A
C95         C103   1.384   1_655  A
C95         C106   1.417       .  A
C96         C104   1.384       .  A
C96         C107   1.415       .  A
C97          C98   1.377       .  A
C97         H109   1.082   1_554  S
C98         H110   1.082       .  S
C99         C100   1.376   1_556  A
C99         H111   1.082       .  S
C100        H112   1.082       .  S
C101        C102   1.371   1_655  A
C101        H113   1.082       .  S
C102        H114   1.082       .  S
C103        C104   1.371       .  A
C103        H115   1.082   1_455  S
C104        H116   1.082       .  S
C105        C132   1.505       .  S
C106        C168   1.509       .  S
C107        C842   1.510       .  S
C108        C192   1.508       .  S
N119        C123   1.352       .  A
N119        N120   1.323       .  A
N119       Cu127   2.110       .  S
N120        C121   1.341       .  A
N120       Cu126   2.063       .  S
C121        C122   1.381       .  A
C121        H124   1.081       .  S
C122        C123   1.393       .  A
C123        H125   1.082       .  S
Cu126       N129   2.062       .  S
Cu127       N137   2.110       .  S
Cu128       N130   2.054       .  S
Cu128       N136   2.056       .  S
N129        C133   1.340       .  A
N129        N130   1.314       .  A
N130        C131   1.342       .  A
C131        C132   1.396       .  A
C131        H134   1.079       .  S
C132        C133   1.397       .  A
C133        H135   1.079       .  S
N136        C140   1.339       .  A
N136        N137   1.325       .  A
N137        C138   1.353       .  A
C138        C139   1.388       .  A
C138        H141   1.082       .  S
C139        C140   1.373       .  A
C140        H142   1.082       .  S
C143        C144   1.551       .  S
C143        C149   1.538       .  S
C143        C147   1.550       .  S
C143        C849   1.524       .  S
C144        H151   1.085       .  S
C144        C145   1.381       .  D
C145        C146   1.543   1_455  S
C145        C753   1.489   1_455  S
C146        C150   1.521       .  S
C146        C148   1.532   1_655  S
C146        H152   1.104       .  S
C147        H153   1.085       .  S
C147        C148   1.359       .  D
C148        C873   1.483   1_455  S
C149        H154   1.087       .  S
C149        C150   1.359   1_455  D
C150        C158   1.464       .  S
N155        C159   1.352       .  A
N155        N156   1.324       .  A
N155       Cu163   2.098       .  S
N156        C157   1.337       .  A
N156       Cu162   2.045       .  S
C157        C158   1.370       .  A
C157        H160   1.082       .  S
C158        C159   1.386       .  A
C159        H161   1.082       .  S
Cu162       N165   2.045       .  S
Cu163       N173   2.097       .  S
Cu164       N166   2.073       .  S
Cu164       N172   2.075       .  S
N165        C169   1.339       .  A
N165        N166   1.312       .  A
N166        C167   1.345       .  A
C167        C168   1.401       .  A
C167        H170   1.080       .  S
C168        C169   1.395       .  A
C169        H171   1.078       .  S
N172        C176   1.333       .  A
N172        N173   1.322       .  A
N173        C174   1.356       .  A
C174        C175   1.395       .  A
C174        H177   1.082       .  S
C175        C176   1.389       .  A
C176        H178   1.082       .  S
N179        C183   1.351       .  A
N179        N180   1.325       .  A
N179       Cu187   2.099       .  S
N180        C181   1.339       .  A
N180       Cu186   2.053       .  S
C181        C182   1.372       .  A
C181        H184   1.082       .  S
C182        C183   1.385       .  A
C183        H185   1.082       .  S
Cu186       N189   2.051       .  S
Cu187       N197   2.098       .  S
Cu188       N190   2.073       .  S
Cu188       N196   2.074       .  S
N189        C193   1.342       .  A
N189        N190   1.313       .  A
N190        C191   1.343       .  A
C191        C192   1.400       .  A
C191        H194   1.080       .  S
C192        C193   1.395       .  A
C193        H195   1.078       .  S
N196        C200   1.337       .  A
N196        N197   1.323       .  A
N197        C198   1.355       .  A
C198        C199   1.391       .  A
C198        H201   1.082       .  S
C199        C200   1.384       .  A
C200        H202   1.080       .  S
N203        C208   1.351       .  A
N203        C207   1.349       .  A
N203        H235   1.036       .  S
N204        C211   1.350       .  A
N204        C212   1.349       .  A
N205        C210   1.355       .  A
N205        C209   1.354       .  A
N205        H236   1.039       .  S
N206        C213   1.353       .  A
N206        C214   1.350       .  A
C207        C215   1.384       .  A
C207        C223   1.409       .  A
C208        C224   1.414       .  A
C208        C216   1.387       .  A
C209        C217   1.384       .  A
C209        C226   1.418       .  A
C210        C225   1.418       .  A
C210        C218   1.385       .  A
C211        C223   1.412       .  A
C211        C219   1.384       .  A
C212        C226   1.412       .  A
C212        C220   1.385       .  A
C213        C221   1.384       .  A
C213        C224   1.418       .  A
C214        C222   1.385       .  A
C214        C225   1.416       .  A
C215        C216   1.378       .  A
C215        H227   1.082       .  S
C216        H228   1.082       .  S
C217        C218   1.377       .  A
C217        H229   1.082       .  S
C218        H230   1.082       .  S
C219        C220   1.372       .  A
C219        H231   1.083       .  S
C220        H232   1.082       .  S
C221        C222   1.372       .  A
C221        H233   1.082       .  S
C222        H234   1.082       .  S
C223        C914   1.502       .  S
C224        C770   1.509       .  S
C225        C250   1.511       .  S
C226        C818   1.508       .  S
N237        C241   1.361   1_556  A
N237        N238   1.323       .  A
N237       Cu245   2.133   1_556  S
N238        C239   1.334       .  A
N238       Cu244   2.066       .  S
C239        C240   1.386       .  A
C239        H242   1.081       .  S
C240        C241   1.403   1_556  A
C241        H243   1.082       .  S
Cu244       N247   2.066       .  S
Cu245       N255   2.133   1_554  S
Cu246       N248   2.058       .  S
Cu246       N254   2.059       .  S
N247        C251   1.346       .  A
N247        N248   1.311       .  A
N248        C249   1.341       .  A
C249        C250   1.398       .  A
C249        H252   1.080       .  S
C250        C251   1.400       .  A
C251        H253   1.079       .  S
N254        C258   1.335       .  A
N254        N255   1.324       .  A
N255        C256   1.360   1_556  A
C256        C257   1.399       .  A
C256        H259   1.082       .  S
C257        C258   1.379   1_554  A
C258        H260   1.080       .  S
C261        C262   1.548       .  S
C261        C267   1.539       .  S
C261        C265   1.548       .  S
C261        C784   1.523       .  S
C262        H269   1.085       .  S
C262        C263   1.381   1_554  D
C263        C264   1.544       .  S
C263        C777   1.489       .  S
C264        C268   1.524       .  S
C264        C266   1.535       .  S
C264        H270   1.104       .  S
C265        H271   1.085       .  S
C265        C266   1.359   1_554  D
C266        C904   1.483       .  S
C267        H272   1.087       .  S
C267        C268   1.359   1_554  D
C268        C370   1.468       .  S
N273        C278   1.351   1_545  A
N273        C277   1.352       .  A
N273        H305   1.038       .  S
N274        C281   1.351   1_554  A
N274        C282   1.351       .  A
N275        C280   1.353   1_545  A
N275        C279   1.353       .  A
N275        H306   1.040       .  S
N276        C283   1.350   1_554  A
N276        C284   1.349       .  A
C277        C285   1.387       .  A
C277        C293   1.417       .  A
C278        C294   1.414       .  A
C278        C286   1.384       .  A
C279        C287   1.386       .  A
C279        C296   1.417       .  A
C280        C295   1.414       .  A
C280        C288   1.384   1_565  A
C281        C293   1.418       .  A
C281        C289   1.384       .  A
C282        C296   1.415       .  A
C282        C290   1.384       .  A
C283        C291   1.385       .  A
C283        C294   1.414       .  A
C284        C292   1.385       .  A
C284        C295   1.412       .  A
C285        C286   1.378   1_545  A
C285        H297   1.082       .  S
C286        H298   1.082       .  S
C287        C288   1.377       .  A
C287        H299   1.082       .  S
C288        H300   1.082   1_545  S
C289        C290   1.373   1_556  A
C289        H301   1.082       .  S
C290        H302   1.082       .  S
C291        C292   1.372   1_556  A
C291        H303   1.082       .  S
C292        H304   1.082       .  S
C293        C380   1.510       .  S
C294        C320   1.507       .  S
C295        C356   1.505       .  S
C296        C794   1.510       .  S
N307        C311   1.350       .  A
N307        N308   1.323       .  A
N307       Cu315   2.100       .  S
N308        C309   1.342       .  A
N308       Cu314   2.067       .  S
C309        C310   1.382       .  A
C309        H312   1.081       .  S
C310        C311   1.391       .  A
C311        H313   1.082       .  S
Cu314       N317   2.065       .  S
Cu315       N325   2.101       .  S
Cu316       N318   2.059       .  S
Cu316       N324   2.062       .  S
N317        C321   1.340       .  A
N317        N318   1.314       .  A
N318        C319   1.342       .  A
C319        C320   1.396       .  A
C319        H322   1.078       .  S
C320        C321   1.398       .  A
C321        H323   1.078       .  S
N324        C328   1.341       .  A
N324        N325   1.323       .  A
N325        C326   1.351       .  A
C326        C327   1.392       .  A
C326        H329   1.082       .  S
C327        C328   1.381       .  A
C328        H330   1.081       .  S
C331        C332   1.537       .  S
C331        C337   1.551       .  S
C331        C335   1.548       .  S
C331        C801   1.524       .  S
C332        H339   1.087       .  S
C332        C333   1.358   1_545  D
C333        C334   1.524       .  S
C333        C346   1.467       .  S
C334        C338   1.543   1_565  S
C334        C336   1.534   1_565  S
C334        H340   1.103       .  S
C335        H341   1.085       .  S
C335        C336   1.360       .  D
C336        C897   1.484   1_545  S
C337        H342   1.085       .  S
C337        C338   1.382       .  D
C338        C729   1.491   1_545  S
N343        C347   1.351       .  A
N343        N344   1.326       .  A
N343       Cu351   2.103       .  S
N344        C345   1.339       .  A
N344       Cu350   2.053       .  S
C345        C346   1.371       .  A
C345        H348   1.082       .  S
C346        C347   1.385       .  A
C347        H349   1.082       .  S
Cu350       N353   2.050       .  S
Cu351       N361   2.101       .  S
Cu352       N354   2.076       .  S
Cu352       N360   2.077       .  S
N353        C357   1.343       .  A
N353        N354   1.313       .  A
N354        C355   1.343       .  A
C355        C356   1.399       .  A
C355        H358   1.081       .  S
C356        C357   1.394       .  A
C357        H359   1.078       .  S
N360        C364   1.336       .  A
N360        N361   1.322       .  A
N361        C362   1.357       .  A
C362        C363   1.394       .  A
C362        H365   1.082       .  S
C363        C364   1.386       .  A
C364        H366   1.079       .  S
N367        C371   1.351       .  A
N367        N368   1.325       .  A
N367       Cu375   2.100       .  S
N368        C369   1.339       .  A
N368       Cu374   2.053       .  S
C369        C370   1.372       .  A
C369        H372   1.082       .  S
C370        C371   1.386       .  A
C371        H373   1.082       .  S
Cu374       N377   2.052       .  S
Cu375       N385   2.100       .  S
Cu376       N378   2.071       .  S
Cu376       N384   2.070       .  S
N377        C381   1.339       .  A
N377        N378   1.313       .  A
N378        C379   1.345       .  A
C379        C380   1.400       .  A
C379        H382   1.080       .  S
C380        C381   1.396       .  A
C381        H383   1.077       .  S
N384        C388   1.337       .  A
N384        N385   1.323       .  A
N385        C386   1.354       .  A
C386        C387   1.391       .  A
C386        H389   1.082       .  S
C387        C388   1.382       .  A
C388        H390   1.080       .  S
N391        C396   1.350       .  A
N391        C395   1.350       .  A
N391        H423   1.038       .  S
N392        C399   1.352       .  A
N392        C400   1.350       .  A
N393        C398   1.355       .  A
N393        C397   1.354       .  A
N393        H424   1.040       .  S
N394        C401   1.352       .  A
N394        C402   1.350       .  A
C395        C403   1.385       .  A
C395        C411   1.411       .  A
C396        C412   1.411       .  A
C396        C404   1.385       .  A
C397        C405   1.385       .  A
C397        C414   1.416       .  A
C398        C413   1.417       .  A
C398        C406   1.385       .  A
C399        C411   1.415       .  A
C399        C407   1.384       .  A
C400        C414   1.415       .  A
C400        C408   1.385       .  A
C401        C409   1.383       .  A
C401        C412   1.415       .  A
C402        C410   1.385       .  A
C402        C413   1.416       .  A
C403        C404   1.376       .  A
C403        H415   1.082       .  S
C404        H416   1.082       .  S
C405        C406   1.377       .  A
C405        H417   1.082       .  S
C406        H418   1.082       .  S
C407        C408   1.372       .  A
C407        H419   1.082       .  S
C408        H420   1.082       .  S
C409        C410   1.373       .  A
C409        H421   1.081       .  S
C410        H422   1.082       .  S
C411        C866   1.507       .  S
C412        C674   1.507       .  S
C413        C438   1.511       .  S
C414        C746   1.508       .  S
N425        C429   1.361   1_655  A
N425        N426   1.324       .  A
N425       Cu433   2.142   1_655  S
N426        C427   1.333       .  A
N426       Cu432   2.067       .  S
C427        C428   1.384       .  A
C427        H430   1.082       .  S
C428        C429   1.403   1_655  A
C429        H431   1.082       .  S
Cu432       N435   2.066       .  S
Cu433       N443   2.140   1_455  S
Cu434       N436   2.056       .  S
Cu434       N442   2.054       .  S
N435        C439   1.346       .  A
N435        N436   1.310       .  A
N436        C437   1.341       .  A
C437        C438   1.398       .  A
C437        H440   1.079       .  S
C438        C439   1.401       .  A
C439        H441   1.080       .  S
N442        C446   1.332       .  A
N442        N443   1.322       .  A
N443        C444   1.363   1_655  A
C444        C445   1.405   1_455  A
C444        H447   1.082       .  S
C445        C446   1.383       .  A
C446        H448   1.082       .  S
N449        C454   1.351       .  A
N449        C453   1.349       .  A
N449        H481   1.036       .  S
N450        C457   1.351       .  A
N450        C458   1.349       .  A
N451        C456   1.355       .  A
N451        C455   1.354       .  A
N451        H482   1.040       .  S
N452        C459   1.353       .  A
N452        C460   1.351       .  A
C453        C461   1.385       .  A
C453        C469   1.412       .  A
C454        C470   1.415       .  A
C454        C462   1.387       .  A
C455        C463   1.384       .  A
C455        C472   1.416       .  A
C456        C471   1.417       .  A
C456        C464   1.385       .  A
C457        C469   1.413       .  A
C457        C465   1.383       .  A
C458        C472   1.413       .  A
C458        C466   1.385       .  A
C459        C467   1.384       .  A
C459        C470   1.419       .  A
C460        C468   1.385       .  A
C460        C471   1.417       .  A
C461        C462   1.378       .  A
C461        H473   1.082       .  S
C462        H474   1.082       .  S
C463        C464   1.377       .  A
C463        H475   1.082       .  S
C464        H476   1.082       .  S
C465        C466   1.372       .  A
C465        H477   1.082       .  S
C466        H478   1.082       .  S
C467        C468   1.374       .  A
C467        H479   1.082       .  S
C468        H480   1.082       .  S
C469        C890   1.506       .  S
C470        C650   1.509       .  S
C471        C496   1.512       .  S
C472        C722   1.507       .  S
N483        C487   1.360       .  A
N483        N484   1.323   1_545  A
N483       Cu491   2.130       .  S
N484        C485   1.332       .  A
N484       Cu490   2.065       .  S
C485        C486   1.385   1_565  A
C485        H488   1.082       .  S
C486        C487   1.402       .  A
C487        H489   1.082       .  S
Cu490       N493   2.066       .  S
Cu491       N501   2.129   1_545  S
Cu492       N494   2.058       .  S
Cu492       N500   2.056       .  S
N493        C497   1.346       .  A
N493        N494   1.310       .  A
N494        C495   1.342       .  A
C495        C496   1.398       .  A
C495        H498   1.079       .  S
C496        C497   1.401       .  A
C497        H499   1.080       .  S
N500        C504   1.333       .  A
N500        N501   1.322       .  A
N501        C502   1.359   1_565  A
C502        C503   1.402       .  A
C502        H505   1.082       .  S
C503        C504   1.383   1_545  A
C504        H506   1.082       .  S
C507        C508   1.551       .  S
C507        C513   1.537       .  S
C507        C511   1.550       .  S
C507        C688   1.525       .  S
C508        H515   1.085       .  S
C508        C509   1.382       .  D
C509        C510   1.543   1_545  S
C509        C657   1.490   1_545  S
C510        C514   1.523       .  S
C510        C512   1.534   1_565  S
C510        H516   1.103       .  S
C511        H517   1.085       .  S
C511        C512   1.360       .  D
C512        C880   1.486   1_545  S
C513        H518   1.087       .  S
C513        C514   1.357   1_545  D
C514        C616   1.465       .  S
N519        C524   1.351       .  A
N519        C523   1.349   1_545  A
N519        H551   1.038       .  S
N520        C527   1.349   1_455  A
N520        C528   1.350       .  A
N521        C526   1.354       .  A
N521        C525   1.355   1_545  A
N521        H552   1.041       .  S
N522        C529   1.354   1_455  A
N522        C530   1.351       .  A
C523        C531   1.384   1_565  A
C523        C539   1.409       .  A
C524        C540   1.413       .  A
C524        C532   1.386       .  A
C525        C533   1.384   1_565  A
C525        C542   1.415       .  A
C526        C541   1.416       .  A
C526        C534   1.385       .  A
C527        C539   1.412       .  A
C527        C535   1.384       .  A
C528        C542   1.411       .  A
C528        C536   1.385       .  A
C529        C537   1.384       .  A
C529        C540   1.419       .  A
C530        C538   1.385       .  A
C530        C541   1.417       .  A
C531        C532   1.377       .  A
C531        H543   1.082   1_545  S
C532        H544   1.082       .  S
C533        C534   1.375       .  A
C533        H545   1.082   1_545  S
C534        H546   1.082       .  S
C535        C536   1.372   1_655  A
C535        H547   1.082       .  S
C536        H548   1.082       .  S
C537        C538   1.373   1_655  A
C537        H549   1.081       .  S
C538        H550   1.082       .  S
C539        C566   1.503       .  S
C540        C602   1.510       .  S
C541        C698   1.510       .  S
C542        C626   1.508       .  S
N553        C557   1.350       .  A
N553        N554   1.322       .  A
N553       Cu561   2.092       .  S
N554        C555   1.339       .  A
N554       Cu560   2.056       .  S
C555        C556   1.381       .  A
C555        H558   1.081       .  S
C556        C557   1.391       .  A
C557        H559   1.082       .  S
Cu560       N563   2.054       .  S
Cu561       N571   2.093       .  S
Cu562       N564   2.055       .  S
Cu562       N570   2.057       .  S
N563        C567   1.338       .  A
N563        N564   1.314       .  A
N564        C565   1.342       .  A
C565        C566   1.397       .  A
C565        H568   1.079       .  S
C566        C567   1.396       .  A
C567        H569   1.078       .  S
N570        C574   1.340       .  A
N570        N571   1.323       .  A
N571        C572   1.348       .  A
C572        C573   1.389       .  A
C572        H575   1.082       .  S
C573        C574   1.379       .  A
C574        H576   1.081       .  S
C577        C578   1.539       .  S
C577        C583   1.547       .  S
C577        C581   1.551       .  S
C577        C705   1.523       .  S
C578        H585   1.087       .  S
C578        C579   1.359   1_455  D
C579        C580   1.524       .  S
C579        C592   1.468       .  S
C580        C584   1.543   1_655  S
C580        C582   1.533   1_655  S
C580        H586   1.103       .  S
C581        H587   1.085       .  S
C581        C582   1.360       .  D
C582        C856   1.486   1_455  S
C583        H588   1.085       .  S
C583        C584   1.380       .  D
C584        C681   1.487   1_455  S
N589        C593   1.352       .  A
N589        N590   1.324       .  A
N589       Cu597   2.102       .  S
N590        C591   1.339       .  A
N590       Cu596   2.048       .  S
C591        C592   1.372       .  A
C591        H594   1.082       .  S
C592        C593   1.387       .  A
C593        H595   1.082       .  S
Cu596       N599   2.047       .  S
Cu597       N607   2.101       .  S
Cu598       N600   2.083       .  S
Cu598       N606   2.085       .  S
N599        C603   1.341       .  A
N599        N600   1.313       .  A
N600        C601   1.346       .  A
C601        C602   1.402       .  A
C601        H604   1.081       .  S
C602        C603   1.394       .  A
C603        H605   1.076       .  S
N606        C610   1.339       .  A
N606        N607   1.324       .  A
N607        C608   1.354       .  A
C608        C609   1.391       .  A
C608        H611   1.082       .  S
C609        C610   1.386       .  A
C610        H612   1.081       .  S
N613        C617   1.350       .  A
N613        N614   1.324       .  A
N613       Cu621   2.096       .  S
N614        C615   1.338       .  A
N614       Cu620   2.049       .  S
C615        C616   1.372       .  A
C615        H618   1.082       .  S
C616        C617   1.385       .  A
C617        H619   1.082       .  S
Cu620       N623   2.047       .  S
Cu621       N631   2.095       .  S
Cu622       N624   2.083       .  S
Cu622       N630   2.083       .  S
N623        C627   1.341       .  A
N623        N624   1.314       .  A
N624        C625   1.345       .  A
C625        C626   1.401       .  A
C625        H628   1.080       .  S
C626        C627   1.393       .  A
C627        H629   1.078       .  S
N630        C634   1.338       .  A
N630        N631   1.323       .  A
N631        C632   1.355       .  A
C632        C633   1.390       .  A
C632        H635   1.082       .  S
C633        C634   1.387       .  A
C634        H636   1.081       .  S
N637        C641   1.351   1_565  A
N637        N638   1.325       .  A
N637       Cu645   2.098       .  S
N638        C639   1.338       .  A
N638       Cu644   2.050       .  S
C639        C640   1.372       .  A
C639        H642   1.082       .  S
C640        C641   1.385   1_565  A
C641        H643   1.082       .  S
Cu644       N647   2.048       .  S
Cu645       N655   2.097       .  S
Cu646       N648   2.080       .  S
Cu646       N654   2.081       .  S
N647        C651   1.340       .  A
N647        N648   1.313       .  A
N648        C649   1.345       .  A
C649        C650   1.401       .  A
C649        H652   1.080       .  S
C650        C651   1.395       .  A
C651        H653   1.076       .  S
N654        C658   1.337       .  A
N654        N655   1.323       .  A
N655        C656   1.355   1_565  A
C656        C657   1.391   1_545  A
C656        H659   1.082       .  S
C657        C658   1.386       .  A
C658        H660   1.080       .  S
N661        C665   1.352   1_655  A
N661        N662   1.325       .  A
N661       Cu669   2.103       .  S
N662        C663   1.337       .  A
N662       Cu668   2.045       .  S
C663        C664   1.369       .  A
C663        H666   1.082       .  S
C664        C665   1.388   1_655  A
C665        H667   1.082       .  S
Cu668       N671   2.047       .  S
Cu669       N679   2.102       .  S
Cu670       N672   2.072       .  S
Cu670       N678   2.073       .  S
N671        C675   1.341       .  A
N671        N672   1.312       .  A
N672        C673   1.344       .  A
C673        C674   1.400       .  A
C673        H676   1.081       .  S
C674        C675   1.395       .  A
C675        H677   1.077       .  S
N678        C682   1.336       .  A
N678        N679   1.324       .  A
N679        C680   1.355   1_655  A
C680        C681   1.392   1_455  A
C680        H683   1.082       .  S
C681        C682   1.383       .  A
C682        H684   1.080       .  S
N685        C689   1.362       .  A
N685        N686   1.323       .  A
N685       Cu693   2.140       .  S
N686        C687   1.332       .  A
N686       Cu692   2.061       .  S
C687        C688   1.384       .  A
C687        H690   1.082       .  S
C688        C689   1.405       .  A
C689        H691   1.082       .  S
Cu692       N695   2.061       .  S
Cu693       N703   2.139       .  S
Cu694       N696   2.052       .  S
Cu694       N702   2.049       .  S
N695        C699   1.344       .  A
N695        N696   1.309       .  A
N696        C697   1.341       .  A
C697        C698   1.398       .  A
C697        H700   1.079       .  S
C698        C699   1.400       .  A
C699        H701   1.080       .  S
N702        C706   1.332       .  A
N702        N703   1.322       .  A
N703        C704   1.361       .  A
C704        C705   1.405       .  A
C704        H707   1.082       .  S
C705        C706   1.381       .  A
C706        H708   1.082       .  S
N709        C713   1.351   1_565  A
N709        N710   1.326       .  A
N709       Cu717   2.104       .  S
N710        C711   1.340       .  A
N710       Cu716   2.055       .  S
C711        C712   1.373       .  A
C711        H714   1.082       .  S
C712        C713   1.385   1_565  A
C713        H715   1.082       .  S
Cu716       N719   2.051       .  S
Cu717       N727   2.102       .  S
Cu718       N720   2.075       .  S
Cu718       N726   2.075       .  S
N719        C723   1.342       .  A
N719        N720   1.314       .  A
N720        C721   1.343       .  A
C721        C722   1.399       .  A
C721        H724   1.080       .  S
C722        C723   1.394       .  A
C723        H725   1.077       .  S
N726        C730   1.337       .  A
N726        N727   1.322       .  A
N727        C728   1.356   1_565  A
C728        C729   1.393   1_545  A
C728        H731   1.082       .  S
C729        C730   1.385       .  A
C730        H732   1.080       .  S
N733        C737   1.349   1_655  A
N733        N734   1.326       .  A
N733       Cu741   2.095       .  S
N734        C735   1.339       .  A
N734       Cu740   2.053       .  S
C735        C736   1.371       .  A
C735        H738   1.082       .  S
C736        C737   1.382   1_655  A
C737        H739   1.082       .  S
Cu740       N743   2.050       .  S
Cu741       N751   2.094       .  S
Cu742       N744   2.071       .  S
Cu742       N750   2.070       .  S
N743        C747   1.343       .  A
N743        N744   1.313       .  A
N744        C745   1.342       .  A
C745        C746   1.399       .  A
C745        H748   1.080       .  S
C746        C747   1.396       .  A
C747        H749   1.078       .  S
N750        C754   1.335       .  A
N750        N751   1.322       .  A
N751        C752   1.356   1_655  A
C752        C753   1.393   1_455  A
C752        H755   1.082       .  S
C753        C754   1.383       .  A
C754        H756   1.080       .  S
N757        C761   1.348   1_556  A
N757        N758   1.323       .  A
N757       Cu765   2.098       .  S
N758        C759   1.340       .  A
N758       Cu764   2.049       .  S
C759        C760   1.377       .  A
C759        H762   1.081       .  S
C760        C761   1.390   1_556  A
C761        H763   1.082       .  S
Cu764       N767   2.047       .  S
Cu765       N775   2.097       .  S
Cu766       N768   2.077       .  S
Cu766       N774   2.078       .  S
N767        C771   1.339       .  A
N767        N768   1.314       .  A
N768        C769   1.345       .  A
C769        C770   1.400       .  A
C769        H772   1.080       .  S
C770        C771   1.395       .  A
C771        H773   1.077       .  S
N774        C778   1.338       .  A
N774        N775   1.323       .  A
N775        C776   1.355   1_556  A
C776        C777   1.391   1_554  A
C776        H779   1.082       .  S
C777        C778   1.385       .  A
C778        H780   1.080       .  S
N781        C785   1.360       .  A
N781        N782   1.322       .  A
N781       Cu789   2.134       .  S
N782        C783   1.332       .  A
N782       Cu788   2.059       .  S
C783        C784   1.384       .  A
C783        H786   1.082       .  S
C784        C785   1.403       .  A
C785        H787   1.082       .  S
Cu788       N791   2.060       .  S
Cu789       N799   2.134       .  S
Cu790       N792   2.063       .  S
Cu790       N798   2.063       .  S
N791        C795   1.343       .  A
N791        N792   1.310       .  A
N792        C793   1.344       .  A
C793        C794   1.399       .  A
C793        H796   1.079       .  S
C794        C795   1.399       .  A
C795        H797   1.079       .  S
N798        C802   1.333       .  A
N798        N799   1.322       .  A
N799        C800   1.361       .  A
C800        C801   1.403       .  A
C800        H803   1.082       .  S
C801        C802   1.385       .  A
C802        H804   1.082       .  S
N805        C809   1.351   1_556  A
N805        N806   1.324       .  A
N805       Cu813   2.092       .  S
N806        C807   1.337       .  A
N806       Cu812   2.048       .  S
C807        C808   1.371       .  A
C807        H810   1.082       .  S
C808        C809   1.385   1_556  A
C809        H811   1.082       .  S
Cu812       N815   2.045       .  S
Cu813       N823   2.091       .  S
Cu814       N816   2.081       .  S
Cu814       N822   2.082       .  S
N815        C819   1.342       .  A
N815        N816   1.313       .  A
N816        C817   1.344       .  A
C817        C818   1.401       .  A
C817        H820   1.080       .  S
C818        C819   1.393       .  A
C819        H821   1.077       .  S
N822        C826   1.338       .  A
N822        N823   1.323       .  A
N823        C824   1.353   1_556  A
C824        C825   1.390   1_554  A
C824        H827   1.082       .  S
C825        C826   1.386       .  A
C826        H828   1.080       .  S
N829        C833   1.361       .  A
N829        N830   1.323       .  A
N829       Cu837   2.136       .  S
N830        C831   1.331       .  A
N830       Cu836   2.054       .  S
C831        C832   1.382       .  A
C831        H834   1.082       .  S
C832        C833   1.404       .  A
C833        H835   1.082       .  S
Cu836       N839   2.056       .  S
Cu837       N847   2.135       .  S
Cu838       N840   2.060       .  S
Cu838       N846   2.061       .  S
N839        C843   1.345       .  A
N839        N840   1.310       .  A
N840        C841   1.341       .  A
C841        C842   1.399       .  A
C841        H844   1.079       .  S
C842        C843   1.399       .  A
C843        H845   1.080       .  S
N846        C850   1.333       .  A
N846        N847   1.322       .  A
N847        C848   1.361       .  A
C848        C849   1.403       .  A
C848        H851   1.082       .  S
C849        C850   1.385       .  A
C850        H852   1.082       .  S
N853        C857   1.351   1_655  A
N853        N854   1.323       .  A
N853       Cu861   2.101       .  S
N854        C855   1.341       .  A
N854       Cu860   2.064       .  S
C855        C856   1.381       .  A
C855        H858   1.081       .  S
C856        C857   1.391   1_655  A
C857        H859   1.082       .  S
Cu860       N863   2.062       .  S
Cu861       N871   2.101       .  S
Cu862       N864   2.057       .  S
Cu862       N870   2.059       .  S
N863        C867   1.341       .  A
N863        N864   1.314       .  A
N864        C865   1.341       .  A
C865        C866   1.397       .  A
C865        H868   1.078       .  S
C866        C867   1.398       .  A
C867        H869   1.079       .  S
N870        C874   1.340       .  A
N870        N871   1.323       .  A
N871        C872   1.351   1_655  A
C872        C873   1.391   1_455  A
C872        H875   1.082       .  S
C873        C874   1.380       .  A
C874        H876   1.081       .  S
N877        C881   1.351   1_565  A
N877        N878   1.322       .  A
N877       Cu885   2.100       .  S
N878        C879   1.340       .  A
N878       Cu884   2.059       .  S
C879        C880   1.381       .  A
C879        H882   1.080       .  S
C880        C881   1.393   1_565  A
C881        H883   1.082       .  S
Cu884       N887   2.057       .  S
Cu885       N895   2.101       .  S
Cu886       N888   2.060       .  S
Cu886       N894   2.062       .  S
N887        C891   1.341       .  A
N887        N888   1.314       .  A
N888        C889   1.341       .  A
C889        C890   1.398       .  A
C889        H892   1.078       .  S
C890        C891   1.396       .  A
C891        H893   1.079       .  S
N894        C898   1.340       .  A
N894        N895   1.324       .  A
N895        C896   1.350   1_565  A
C896        C897   1.391   1_545  A
C896        H899   1.082       .  S
C897        C898   1.380       .  A
C898        H900   1.081       .  S
N901        C905   1.350       .  A
N901        N902   1.324       .  A
N901       Cu909   2.101       .  S
N902        C903   1.340       .  A
N902       Cu908   2.059       .  S
C903        C904   1.379       .  A
C903        H906   1.081       .  S
C904        C905   1.391       .  A
C905        H907   1.082   1_556  S
Cu908       N911   2.058       .  S
Cu909       N919   2.099       .  S
Cu910       N912   2.056       .  S
Cu910       N918   2.057       .  S
N911        C915   1.343       .  A
N911        N912   1.314       .  A
N912        C913   1.338       .  A
C913        C914   1.396       .  A
C913        H916   1.079       .  S
C914        C915   1.397       .  A
C915        H917   1.079       .  S
N918        C922   1.339       .  A
N918        N919   1.322       .  A
N919        C920   1.351       .  A
C920        C921   1.392       .  A
C920        H923   1.082   1_556  S
C921        C922   1.380       .  A
C922        H924   1.080       .  S
