geometry optimzed in LAMMPS
_audit_creation_date              2020-12-01 
_audit_creation_method            'lammps2cif' 
_symmetry_space_group_name_H-M    'P1' 
_symmetry_Int_Tables_number       1 
_symmetry_cell_setting            triclinic 
loop_ 
_symmetry_equiv_pos_as_xyz 
  x,y,z 
_cell_length_a                    73.47080748 
_cell_length_b                    44.1633875004149 
_cell_length_c                    43.12024555024427 
_cell_angle_alpha                 90.07258093263474 
_cell_angle_beta                  89.94336836489286 
_cell_angle_gamma                 89.92683210962569 
loop_ 
_atom_site_label 
_atom_site_type_symbol 
_atom_site_fract_x 
_atom_site_fract_y 
_atom_site_fract_z 
_atom_site_charge 
C1          C  0.74325705  0.78387021  0.12487693     0.03200
C2          C  0.74380807  0.78085724  0.09243740    -0.13000
C3          C  0.75067610  0.75456459  0.07783248     0.00700
C4          C  0.75885958  0.73238941  0.09710138    -0.11500
C5          C  0.76018253  0.73651537  0.12941219     0.03200
C6          C  0.75175863  0.76170635  0.14319552    -0.10900
H7          H  0.73858161  0.79946773  0.07895936     0.08800
H8          H  0.76442353  0.71176900  0.08758245     0.06300
H9          H  0.75146471  0.76345274  0.16823876     0.06100
C10         C  0.75767835  0.72427962  0.99470475     0.03200
C11         C  0.75932952  0.72830169  0.02695519    -0.13000
C12         C  0.74908349  0.75055560  0.04295715     0.00700
C13         C  0.73713165  0.76888190  0.02511045    -0.11500
C14         C  0.73620073  0.76636132  0.99263709     0.03200
C15         C  0.74658105  0.74408223  0.97771593    -0.10900
H16         H  0.76863095  0.71363834  0.03911699     0.08800
H17         H  0.72845890  0.78555545  0.03587951     0.06300
H18         H  0.74587454  0.74196666  0.95270455     0.06100
C19         C  0.75261679  0.27207848  0.49589206     0.03200
C20         C  0.75216634  0.27178508  0.52842904    -0.13000
C21         C  0.74341945  0.24813489  0.54478508     0.00700
C22         C  0.73424174  0.22575999  0.52723279    -0.11500
C23         C  0.73370287  0.22702451  0.49469602     0.03200
C24         C  0.74331931  0.24978707  0.47920918    -0.10900
H25         H  0.75890819  0.29001746  0.54054458     0.08800
H26         H  0.72777492  0.20669205  0.53835542     0.06300
H27         H  0.74339441  0.25040391  0.45407351     0.06100
C28         C  0.73261757  0.22620900  0.62899977     0.03200
C29         C  0.73134972  0.22925748  0.59663329    -0.13000
C30         C  0.74417232  0.24644609  0.57971790     0.00700
C31         C  0.75784196  0.26174244  0.59663675    -0.11500
C32         C  0.75820648  0.26113688  0.62923277     0.03200
C33         C  0.74582954  0.24272845  0.64513963    -0.10900
H34         H  0.72017809  0.21811619  0.58505563     0.08800
H35         H  0.76840332  0.27426085  0.58487260     0.06300
H36         H  0.74641059  0.24137459  0.67021228     0.06100
N37         N  0.34747909  0.94241563  0.80038174    -0.27200
N38         N  0.33220648  0.95299014  0.81247750    -0.35100
C39         C  0.31817325  0.93656238  0.80161552     0.01100
C40         C  0.32490984  0.91466617  0.78150896     0.07100
C41         C  0.34358625  0.91902369  0.78153839    -0.06000
H42         H  0.30414077  0.94015893  0.80825504     0.07800
H43         H  0.35363024  0.90637216  0.76849168     0.09000
Cu44       Cu  0.33117928  0.98965653  0.84284386     0.44200
Cu45       Cu  0.37289678  0.96036992  0.80985953     0.42000
Cu46       Cu  0.37416938  0.02625606  0.86003618     0.43900
N47         N  0.33368902  0.02746090  0.87144775    -0.34600
N48         N  0.34937773  0.04079346  0.87755262    -0.28900
C49         C  0.34640833  0.06463878  0.89632019    -0.05000
C50         C  0.32792184  0.06644504  0.90260134     0.07200
C51         C  0.32031000  0.04253944  0.88621237     0.01000
H52         H  0.35696421  0.07985977  0.90416034     0.08700
H53         H  0.30607064  0.03641967  0.88520083     0.07800
N54         N  0.39712054  0.00649464  0.84070140    -0.36100
N55         N  0.39663095  0.98220108  0.82278869    -0.28300
C56         C  0.41371267  0.97452077  0.81486125    -0.03500
C57         C  0.42554510  0.99512156  0.82816761     0.05100
C58         C  0.41454111  0.01504392  0.84448293     0.03200
H59         H  0.41724206  0.95542987  0.80029112     0.08300
H60         H  0.41885083  0.03395976  0.85863005     0.07100
N61         N  0.64075509  0.94330659  0.84421323    -0.27200
N62         N  0.65591168  0.95796948  0.83750817    -0.35100
C63         C  0.66999164  0.94389177  0.85135050     0.01100
C64         C  0.66341423  0.91914650  0.86777377     0.07100
C65         C  0.64478390  0.91948038  0.86243656    -0.06000
H66         H  0.68402285  0.95090320  0.84905678     0.07800
H67         H  0.63482776  0.90375386  0.87146318     0.09000
Cu68       Cu  0.65647598  0.99638326  0.80947337     0.44200
Cu69       Cu  0.61535355  0.95725193  0.82856775     0.42000
Cu70       Cu  0.61333365  0.02318163  0.77775533     0.43900
N71         N  0.65387896  0.03392540  0.78056967    -0.34600
N72         N  0.63828452  0.04334267  0.76867627    -0.28900
C73         C  0.64141285  0.06779815  0.75088230    -0.05000
C74         C  0.65984935  0.07434766  0.75175641     0.07200
C75         C  0.66731247  0.05222651  0.77069833     0.01000
H76         H  0.63097546  0.08008690  0.73844685     0.08700
H77         H  0.68152346  0.04915629  0.77640885     0.07800
N78         N  0.59054186  0.00084989  0.79461657    -0.36100
N79         N  0.59136728  0.97705899  0.81314949    -0.28300
C80         C  0.57440636  0.96927859  0.82162680    -0.03500
C81         C  0.56224854  0.98927966  0.80808177     0.05100
C82         C  0.57299301  0.00878534  0.79081383     0.03200
H83         H  0.57125876  0.95051925  0.83679135     0.08300
H84         H  0.56845317  0.02807598  0.77743713     0.07100
N85         N  0.13905916  0.56187483  0.35839980    -0.27200
N86         N  0.15478892  0.54808494  0.35369193    -0.35100
C87         C  0.16799470  0.56345104  0.36835411     0.01100
C88         C  0.16021384  0.58799748  0.38332312     0.07100
C89         C  0.14182469  0.58636911  0.37635334    -0.06000
H90         H  0.18215942  0.55673524  0.36879046     0.07800
H91         H  0.13119524  0.60170234  0.38381990     0.09000
Cu92       Cu  0.15756569  0.50836950  0.32869485     0.44200
Cu93       Cu  0.11456424  0.54558738  0.34146324     0.42000
Cu94       Cu  0.11634711  0.47059953  0.30558489     0.43900
N95         N  0.15728032  0.46888945  0.30286127    -0.34600
N96         N  0.14223467  0.45465718  0.29467430    -0.28900
C97         C  0.14674754  0.43017357  0.27770168    -0.05000
C98         C  0.16558841  0.42880569  0.27514914     0.07200
C99         C  0.17173038  0.45399485  0.29127869     0.01000
H100        H  0.13699112  0.41454450  0.26789950     0.08700
H101        H  0.18562263  0.46161836  0.29381450     0.07800
N102        N  0.09243324  0.49429018  0.31463621    -0.36100
N103        N  0.09188800  0.52206734  0.32615120    -0.28300
C104        C  0.07445037  0.53121521  0.32794261    -0.03500
C105        C  0.06350000  0.50799962  0.31732572     0.05100
C106        C  0.07531400  0.48487644  0.30928482     0.03200
H107        H  0.07004767  0.55275657  0.33730420     0.08300
H108        H  0.07173067  0.46286410  0.30011694     0.07100
N109        N  0.84892406  0.45161863  0.35495185    -0.27200
N110        N  0.83342835  0.46450303  0.34666697    -0.35100
C111        C  0.81958124  0.44914112  0.35965184     0.01100
C112        C  0.82666878  0.42556511  0.37715420     0.07100
C113        C  0.84536121  0.42781622  0.37341416    -0.06000
H114        H  0.80537129  0.45493620  0.35681115     0.07800
H115        H  0.85567458  0.41300722  0.38290656     0.09000
Cu116      Cu  0.83176843  0.50266620  0.31830421     0.44200
Cu117      Cu  0.87423055  0.46701281  0.34102245     0.42000
Cu118      Cu  0.87415905  0.53836460  0.29846435     0.43900
N119        N  0.83345745  0.54170930  0.29120416    -0.34600
N120        N  0.84899401  0.55526954  0.28463377    -0.28900
C121        C  0.84556784  0.57989177  0.26718438    -0.05000
C122        C  0.82689262  0.58219565  0.26237248     0.07200
C123        C  0.81975510  0.55721207  0.27786600     0.01000
H124        H  0.85599560  0.59498666  0.25861071     0.08700
H125        H  0.80569932  0.55014413  0.27889947     0.07800
N126        N  0.89755163  0.51482375  0.31104175    -0.36100
N127        N  0.89755119  0.48842441  0.32550698    -0.28300
C128        C  0.91483610  0.47904817  0.32927420    -0.03500
C129        C  0.92625802  0.50069162  0.31675993     0.05100
C130        C  0.91486081  0.52310416  0.30558289     0.03200
H131        H  0.91878543  0.45845278  0.34106246     0.08300
H132        H  0.91886212  0.54389255  0.29423066     0.07100
C133        C  0.24016272  0.70876418  0.65504399     0.03200
C134        C  0.24932273  0.73084590  0.67235814    -0.13000
C135        C  0.25744381  0.75569020  0.65760088     0.00700
C136        C  0.25580557  0.75872005  0.62529036    -0.11500
C137        C  0.24749875  0.73602260  0.60708707     0.03200
C138        C  0.23999170  0.71079592  0.62255976    -0.10900
H139        H  0.24995582  0.72883724  0.69738006     0.08800
H140        H  0.26090166  0.77920660  0.61475247     0.06300
H141        H  0.23394776  0.69234354  0.60974274     0.06100
C142        C  0.23320738  0.72402397  0.52245080     0.03200
C143        C  0.23356694  0.72239454  0.55493884    -0.13000
C144        C  0.24661609  0.73870676  0.57231888     0.00700
C145        C  0.25886147  0.75754138  0.55595994    -0.11500
C146        C  0.25760552  0.76080193  0.52371433     0.03200
C147        C  0.24490373  0.74389195  0.50707514    -0.10900
H148        H  0.22345607  0.70849005  0.56621768     0.08800
H149        H  0.26947109  0.76987680  0.56782927     0.06300
H150        H  0.24434571  0.74583022  0.48202396     0.06100
N151        N  0.14050284  0.42362308  0.86369512    -0.27200
N152        N  0.15659517  0.43195505  0.85292600    -0.35100
C153        C  0.16955339  0.41457440  0.86593849     0.01100
C154        C  0.16126940  0.39441245  0.88604998     0.07100
C155        C  0.14285059  0.40094144  0.88415653    -0.06000
H156        H  0.18400375  0.41727460  0.86198595     0.07800
H157        H  0.13196354  0.39016288  0.89692872     0.09000
Cu158      Cu  0.16042367  0.46810347  0.82285469     0.44200
Cu159      Cu  0.11608549  0.44383276  0.85033811     0.42000
Cu160      Cu  0.11939675  0.50700046  0.79736606     0.43900
N161        N  0.16058111  0.50587882  0.79419249    -0.34600
N162        N  0.14566503  0.52017353  0.78521255    -0.28900
C163        C  0.15042928  0.54408156  0.76771106    -0.05000
C164        C  0.16923468  0.54480374  0.76527735     0.07200
C165        C  0.17520706  0.52024439  0.78249014     0.01000
H166        H  0.14087673  0.55983848  0.75750997     0.08700
H167        H  0.18915820  0.51371004  0.78691611     0.07800
N168        N  0.09469425  0.48958561  0.81299199    -0.36100
N169        N  0.09353614  0.46663514  0.83254117    -0.28300
C170        C  0.07586429  0.46085607  0.83824456    -0.03500
C171        C  0.06527277  0.48124661  0.82165915     0.05100
C172        C  0.07776429  0.49894896  0.80571719     0.03200
H173        H  0.07112919  0.44270840  0.85298823     0.08300
H174        H  0.07477518  0.51753540  0.79020900     0.07100
N175        N  0.85078040  0.43944137  0.77662929    -0.27200
N176        N  0.83480998  0.44904684  0.78688267    -0.35100
C177        C  0.82175775  0.43035650  0.77619643     0.01100
C178        C  0.82995264  0.40803052  0.75831872     0.07100
C179        C  0.84832119  0.41469692  0.75899335    -0.06000
H180        H  0.80735376  0.43325576  0.78051946     0.07800
H181        H  0.85916914  0.40232357  0.74764938     0.09000
Cu182      Cu  0.83162666  0.48753335  0.81438334     0.44200
Cu183      Cu  0.87551163  0.45923900  0.78735106     0.42000
Cu184      Cu  0.87442219  0.52566332  0.83416530     0.43900
N185        N  0.83328076  0.52634688  0.84178420    -0.34600
N186        N  0.84875729  0.54012859  0.84858068    -0.28900
C187        C  0.84518091  0.56417195  0.86676767    -0.05000
C188        C  0.82656004  0.56583827  0.87166771     0.07200
C189        C  0.81947730  0.54130348  0.85561263     0.01000
H190        H  0.85549622  0.57894871  0.87627548     0.08700
H191        H  0.80530654  0.53486883  0.85396446     0.07800
N192        N  0.89864094  0.50557299  0.81952956    -0.36100
N193        N  0.89891843  0.48060065  0.80265185    -0.28300
C194        C  0.91628728  0.47202148  0.79807686    -0.03500
C195        C  0.92760550  0.49278819  0.81245266     0.05100
C196        C  0.91590428  0.51376212  0.82589774     0.03200
H197        H  0.92038260  0.45214750  0.78512410     0.08300
H198        H  0.91962743  0.53308853  0.83994812     0.07100
C199        C  0.25417538  0.22050145  0.16189399     0.03200
C200        C  0.25454583  0.22029844  0.12928036    -0.13000
C201        C  0.24669078  0.24397366  0.11175925     0.00700
C202        C  0.23834735  0.26802080  0.12820517    -0.11500
C203        C  0.23669425  0.26729261  0.16060413     0.03200
C204        C  0.24461251  0.24355257  0.17732618    -0.10900
H205        H  0.26108384  0.20139926  0.11795028     0.08800
H206        H  0.23278203  0.28740473  0.11625892     0.06300
H207        H  0.24344729  0.24321661  0.20237975     0.06100
C208        C  0.25755974  0.22114740  0.02750555     0.03200
C209        C  0.24465909  0.23841604  0.01141470    -0.13000
C210        C  0.23331416  0.25870110  0.02712383     0.00700
C211        C  0.23398411  0.26034518  0.05955649    -0.11500
C212        C  0.24664013  0.24301844  0.07673214     0.03200
C213        C  0.25873783  0.22403898  0.05996376    -0.10900
H214        H  0.24344289  0.23622283  0.98647237     0.08800
H215        H  0.22412153  0.27471875  0.07091196     0.06300
H216        H  0.26928549  0.21144292  0.07167271     0.06100
N217        N  0.34980440  0.03178604  0.29317478    -0.27200
N218        N  0.33507961  0.02359510  0.30860716    -0.35100
C219        C  0.32093088  0.04049076  0.29915828     0.01100
C220        C  0.32680985  0.06008754  0.27607978     0.07100
C221        C  0.34531761  0.05400105  0.27320103    -0.06000
H222        H  0.30743147  0.03867438  0.30891826     0.07800
H223        H  0.35484523  0.06473116  0.25756577     0.09000
Cu224      Cu  0.33434112  0.98890487  0.34095739     0.44200
Cu225      Cu  0.37531402  0.01283397  0.30128893     0.42000
Cu226      Cu  0.37663789  0.95500560  0.36235831     0.43900
N227        N  0.33616570  0.95183966  0.37028270    -0.34600
N228        N  0.35180680  0.93953283  0.37857817    -0.28900
C229        C  0.34850850  0.91557712  0.39698476    -0.05000
C230        C  0.32983881  0.91236910  0.40009417     0.07200
C231        C  0.32246832  0.93595337  0.38299541     0.01000
H232        H  0.35892222  0.90104499  0.40663539     0.08700
H233        H  0.30820919  0.94131030  0.38001865     0.07800
N234        N  0.39943794  0.97280083  0.34077921    -0.36100
N235        N  0.39904978  0.99318134  0.31833198    -0.28300
C236        C  0.41625751  0.99987848  0.31013123    -0.03500
C237        C  0.42804000  0.98318595  0.32850859     0.05100
C238        C  0.41683950  0.96608369  0.34745252     0.03200
H239        H  0.41992347  0.01639219  0.29270664     0.08300
H240        H  0.42095608  0.94980125  0.36480167     0.07100
N241        N  0.64109964  0.96401862  0.25201927    -0.27200
N242        N  0.65571947  0.98100755  0.25601244    -0.35100
C243        C  0.66971216  0.96866073  0.24030549     0.01100
C244        C  0.66367026  0.94251124  0.22591177     0.07100
C245        C  0.64548333  0.94017420  0.23401066    -0.06000
H246        H  0.68351988  0.97712659  0.24083301     0.07800
H247        H  0.63623618  0.92207975  0.22790817     0.09000
Cu248      Cu  0.65679157  0.01744675  0.28644223     0.44200
Cu249      Cu  0.61623686  0.97288793  0.27313020     0.42000
Cu250      Cu  0.61730018  0.02658748  0.33635825     0.43900
N251        N  0.65577680  0.04728634  0.32368974    -0.34600
N252        N  0.64165100  0.04974231  0.34255881    -0.28900
C253        C  0.64573157  0.06949421  0.36528684    -0.05000
C254        C  0.66319321  0.08028031  0.36036287     0.07200
C255        C  0.66915688  0.06557529  0.33380690     0.01000
H256        H  0.63659401  0.07571209  0.38393245     0.08700
H257        H  0.68244048  0.06729039  0.32311685     0.07800
N258        N  0.59394049  0.00367352  0.32270886    -0.36100
N259        N  0.59348565  0.98455916  0.29913374    -0.28300
C260        C  0.57628786  0.97494212  0.29509031    -0.03500
C261        C  0.56529538  0.98842694  0.31739335     0.05100
C262        C  0.57704342  0.00661213  0.33437958     0.03200
H263        H  0.57209732  0.96006113  0.27650617     0.08300
H264        H  0.57355386  0.02132433  0.35356311     0.07100
C265        C  0.44823329  0.98393119  0.32809181    -0.19800
C266        C  0.45860232  0.98098975  0.35557531     0.36400
C267        C  0.47771084  0.98138738  0.35383309    -0.25800
C268        C  0.48661444  0.98498084  0.32535935     0.02800
C269        C  0.47636577  0.98847143  0.29802713     0.27600
C270        C  0.45726225  0.98789992  0.29965007    -0.24900
N271        N  0.44976186  0.97835476  0.38519939    -0.82300
H272        H  0.48574143  0.97909714  0.37477071     0.13400
C273        C  0.50673994  0.98555210  0.32450158     0.02800
N274        N  0.48544263  0.99258156  0.26878738    -0.80900
H275        H  0.44939086  0.99023981  0.27855642     0.18300
C276        C  0.51620677  0.96031270  0.31319867    -0.25700
C277        C  0.53533348  0.96019270  0.31158801     0.36300
C278        C  0.54514717  0.98632599  0.32067826    -0.19700
C279        C  0.53551518  0.01132179  0.33261910    -0.25000
C280        C  0.51642506  0.01116336  0.33464674     0.27700
H281        H  0.50860668  0.94054174  0.30587994     0.13400
N282        N  0.54474521  0.93344478  0.30133329    -0.82300
H283        H  0.54283066  0.03143898  0.33967439     0.18300
N284        N  0.50678694  0.03701395  0.34662267    -0.80900
H285        H  0.53551274  0.91639836  0.29541038     0.33900
H286        H  0.55230223  0.92528418  0.32009078     0.38400
H287        H  0.51590547  0.05394671  0.35333869     0.33900
H288        H  0.49899573  0.04599866  0.32855252     0.30600
H289        H  0.47595544  0.99460738  0.25084614     0.33900
H290        H  0.49245579  0.01314344  0.26980374     0.30600
H291        H  0.44277291  0.99860349  0.38931031     0.38400
H292        H  0.45935669  0.97619335  0.40295786     0.33900
C293        C  0.31586181  0.08287327  0.25853685    -0.19800
C294        C  0.29682584  0.07975783  0.25431642     0.36400
C295        C  0.28703889  0.10261326  0.23895812    -0.25800
C296        C  0.29582242  0.12783181  0.22614929     0.02800
C297        C  0.31489608  0.13043120  0.22914012     0.27600
C298        C  0.32464168  0.10821494  0.24564528    -0.24900
N299        N  0.28746654  0.05311881  0.26481155    -0.82300
H300        H  0.27240532  0.10059280  0.23668810     0.13400
C301        C  0.28481225  0.15126028  0.20975966     0.02800
N302        N  0.32431826  0.15547120  0.21517058    -0.80900
H303        H  0.33919024  0.11084958  0.24848068     0.18300
C304        C  0.28633516  0.18173734  0.21865781    -0.25700
C305        C  0.27638719  0.20448175  0.20353686     0.36300
C306        C  0.26415901  0.19676421  0.17958807    -0.19700
C307        C  0.26235272  0.16619103  0.17107220    -0.25000
C308        C  0.27271206  0.14343540  0.18556803     0.27700
H309        H  0.29546665  0.18800829  0.23730445     0.13400
N310        N  0.27927025  0.23552153  0.21183527    -0.82300
H311        H  0.25301501  0.16009189  0.15266975     0.18300
N312        N  0.27125911  0.11251478  0.17539549    -0.80900
H313        H  0.27628808  0.23800658  0.23542025     0.33900
H314        H  0.29305146  0.24047522  0.20861138     0.38400
H315        H  0.26175563  0.11056923  0.15746318     0.33900
H316        H  0.28385496  0.10621445  0.16610537     0.30600
H317        H  0.33828773  0.15411444  0.21954904     0.33900
H318        H  0.32271764  0.15364949  0.19114503     0.30600
H319        H  0.29240596  0.03480355  0.25191350     0.38400
H320        H  0.27352980  0.05458904  0.26013501     0.33900
C321        C  0.04500850  0.48338833  0.82060566    -0.19800
C322        C  0.03410723  0.47661399  0.84677749     0.36400
C323        C  0.01501805  0.47802984  0.84438672    -0.25800
C324        C  0.00652106  0.48659344  0.81666356     0.02800
C325        C  0.01730557  0.49379437  0.79063658     0.27600
C326        C  0.03642369  0.49228580  0.79291200    -0.24900
N327        N  0.04240169  0.46907074  0.87593579    -0.82300
H328        H  0.00666798  0.47285506  0.86441783     0.13400
C329        C  0.98629235  0.48799052  0.81537884     0.02800
N330        N  0.00877266  0.50221485  0.76192038    -0.80900
H331        H  0.04464144  0.49746322  0.77274057     0.18300
C332        C  0.97760727  0.51603347  0.81138754    -0.25700
C333        C  0.95847816  0.51825857  0.81055404     0.36300
C334        C  0.94782152  0.49182117  0.81372647    -0.19700
C335        C  0.95657194  0.46376359  0.81756659    -0.25000
C336        C  0.97567580  0.46160081  0.81858681     0.27700
H337        H  0.98582141  0.53625767  0.80898333     0.13400
N338        N  0.94988888  0.54714982  0.80588013    -0.82300
H339        H  0.94845270  0.44344703  0.82005472     0.18300
N340        N  0.98436962  0.43271404  0.82276652    -0.80900
H341        H  0.95964233  0.56428616  0.80415453     0.33900
H342        H  0.94316799  0.54636097  0.78453325     0.38400
H343        H  0.97465924  0.41556683  0.82498829     0.33900
H344        H  0.99176855  0.42797541  0.80260639     0.30600
H345        H  0.01858619  0.50687664  0.74501349     0.33900
H346        H  0.00140704  0.48350041  0.75400173     0.30600
H347        H  0.04952475  0.48814544  0.88357791     0.38400
H348        H  0.03248885  0.46455610  0.89271992     0.33900
C349        C  0.17032046  0.37271998  0.90726901    -0.19800
C350        C  0.18507337  0.35459396  0.89730623     0.36400
C351        C  0.19381020  0.33544012  0.91865078    -0.25800
C352        C  0.18818107  0.33420081  0.94967894     0.02800
C353        C  0.17335428  0.35195598  0.95963675     0.27600
C354        C  0.16444061  0.37086565  0.93822980    -0.24900
N355        N  0.19103572  0.35551880  0.86556213    -0.82300
H356        H  0.20521574  0.32163220  0.91120429     0.13400
C357        C  0.19840602  0.31476029  0.97152319     0.02800
N358        N  0.16760758  0.35096756  0.99148780    -0.80900
H359        H  0.15317203  0.38483500  0.94592822     0.18300
C360        C  0.21094028  0.32813576  0.99181915    -0.25700
C361        C  0.22231471  0.31022507  0.01054628     0.36300
C362        C  0.22079393  0.27837789  0.00928123    -0.19700
C363        C  0.20792740  0.26508214  0.98947851    -0.25000
C364        C  0.19666884  0.28301280  0.97060110     0.27700
H365        H  0.21228039  0.35256837  0.99217598     0.13400
N366        N  0.23581634  0.32415035  0.03000060    -0.82300
H367        H  0.20681904  0.24063041  0.98856300     0.18300
N368        N  0.18367336  0.26919857  0.95012400    -0.80900
H369        H  0.23515704  0.34772796  0.02822606     0.33900
H370        H  0.24861655  0.31771616  0.02160805     0.38400
H371        H  0.18419356  0.24561263  0.95202639     0.33900
H372        H  0.17069771  0.27581068  0.95748861     0.30600
H373        H  0.15661641  0.36562166  0.99513870     0.33900
H374        H  0.16286459  0.32909398  0.99593282     0.30600
H375        H  0.18041918  0.34724837  0.85183510     0.38400
H376        H  0.20210187  0.34097987  0.86212850     0.33900
C377        C  0.26924496  0.78256774  0.50712668    -0.19800
C378        C  0.28733833  0.77545633  0.49918567     0.36400
C379        C  0.29768268  0.79652821  0.48223932    -0.25800
C380        C  0.29015426  0.82439664  0.47311452     0.02800
C381        C  0.27205691  0.83150905  0.48149861     0.27600
C382        C  0.26174343  0.81037453  0.49823054    -0.24900
N383        N  0.29499824  0.74679459  0.50808075    -0.82300
H384        H  0.31151595  0.79100064  0.47557066     0.13400
C385        C  0.30104865  0.84569426  0.45399702     0.02800
N386        N  0.26427032  0.86021388  0.47302111    -0.80900
H387        H  0.24778270  0.81556244  0.50444145     0.18300
C388        C  0.29417261  0.85501216  0.42521199    -0.25700
C389        C  0.30342738  0.87635135  0.40698126     0.36300
C390        C  0.31998732  0.88869401  0.41778804    -0.19700
C391        C  0.32722911  0.87846539  0.44605845    -0.25000
C392        C  0.31785496  0.85726392  0.46441810     0.27700
H393        H  0.28145676  0.84556099  0.41696961     0.13400
N394        N  0.29618780  0.88510532  0.37735594    -0.82300
H395        H  0.33996867  0.88777116  0.45433521     0.18300
N396        N  0.32511259  0.84797035  0.49386325    -0.80900
H397        H  0.28385343  0.87409987  0.37302459     0.33900
H398        H  0.30532397  0.87770235  0.36035120     0.38400
H399        H  0.33760491  0.85851647  0.49806778     0.33900
H400        H  0.31616554  0.85553177  0.51108650     0.30600
H401        H  0.25081406  0.86180508  0.48077615     0.33900
H402        H  0.27158116  0.87708132  0.48459419     0.30600
H403        H  0.28776170  0.72984458  0.49648334     0.38400
H404        H  0.30849875  0.74513803  0.50058259     0.33900
C405        C  0.23015837  0.68404538  0.67095817    -0.19800
C406        C  0.21147408  0.67919319  0.66515893     0.36400
C407        C  0.20233149  0.65577730  0.68068655    -0.25800
C408        C  0.21126951  0.63767251  0.70265784     0.02800
C409        C  0.22992044  0.64268391  0.70870203     0.27600
C410        C  0.23919266  0.66575668  0.69267162    -0.24900
N411        N  0.20176538  0.69849984  0.64401623    -0.82300
H412        H  0.18805233  0.65182212  0.67591885     0.13400
C413        C  0.20073121  0.61398921  0.71942007     0.02800
N414        N  0.23928306  0.62463399  0.73137412    -0.80900
H415        H  0.25350873  0.66961227  0.69719987     0.18300
C416        C  0.20649344  0.58367953  0.71829229    -0.25700
C417        C  0.19647503  0.56061519  0.73298896     0.36300
C418        C  0.18036575  0.56808072  0.74925623    -0.19700
C419        C  0.17460149  0.59837943  0.75022715    -0.25000
C420        C  0.18466929  0.62141369  0.73576462     0.27700
H421        H  0.21866250  0.57793433  0.70533273     0.13400
N422        N  0.20233859  0.52963077  0.73068733    -0.82300
H423        H  0.16233389  0.60422305  0.76285707     0.18300
N424        N  0.17873832  0.65239374  0.73784254    -0.80900
H425        H  0.21445226  0.52804875  0.71803276     0.33900
H426        H  0.19247746  0.51784518  0.71806219     0.38400
H427        H  0.16663973  0.65402084  0.75053029     0.33900
H428        H  0.18860132  0.66434673  0.75029065     0.30600
H429        H  0.25293579  0.63111261  0.73295920     0.33900
H430        H  0.23338678  0.62915812  0.75296495     0.30600
H431        H  0.20175496  0.72035679  0.65337830     0.38400
H432        H  0.18814380  0.69188695  0.64231886     0.33900
C433        C  0.94635103  0.50107485  0.31711035    -0.19800
C434        C  0.95668226  0.47561434  0.30807794     0.36400
C435        C  0.97578210  0.47737739  0.30836355    -0.25800
C436        C  0.98475317  0.50372364  0.31840275     0.02800
C437        C  0.97432443  0.52892743  0.32810230     0.27600
C438        C  0.95525149  0.52751657  0.32671441    -0.24900
N439        N  0.94777032  0.44832592  0.29811359    -0.82300
H440        H  0.98372648  0.45817728  0.30044969     0.13400
C441        C  0.00502527  0.50465515  0.31835304     0.02800
N442        N  0.98312388  0.55565600  0.33981140    -0.80900
H443        H  0.94724704  0.54690187  0.33397424     0.18300
C444        C  0.01403246  0.52886147  0.30380593    -0.25700
C445        C  0.03313151  0.53059413  0.30340431     0.36300
C446        C  0.04342420  0.50714442  0.31696074    -0.19700
C447        C  0.03450714  0.48267584  0.33094144    -0.25000
C448        C  0.01542033  0.48150725  0.33243408     0.27700
H449        H  0.00612163  0.54639364  0.29253808     0.13400
N450        N  0.04210634  0.55578970  0.28889893    -0.82300
H451        H  0.04250225  0.46489837  0.34163849     0.18300
N452        N  0.00656901  0.45724948  0.34873295    -0.80900
H453        H  0.03256440  0.57118611  0.28022667     0.33900
H454        H  0.04933156  0.54744384  0.26981209     0.38400
H455        H  0.01615629  0.44212103  0.35773430     0.33900
H456        H  0.99974149  0.46670925  0.36770707     0.30600
H457        H  0.97351010  0.57210352  0.34590819     0.33900
H458        H  0.98990137  0.54966173  0.36021295     0.30600
H459        H  0.94069503  0.45327235  0.27771561     0.38400
H460        H  0.95734556  0.43165863  0.29247320     0.33900
C461        C  0.22628330  0.29122066  0.17694937    -0.19800
C462        C  0.20921433  0.28489974  0.19041967     0.36400
C463        C  0.19965291  0.30811885  0.20576136    -0.25800
C464        C  0.20674102  0.33758365  0.20756811     0.02800
C465        C  0.22376118  0.34393111  0.19379935     0.27600
C466        C  0.23336543  0.32063988  0.17859719    -0.24900
N467        N  0.20164842  0.25496616  0.18826647    -0.82300
H468        H  0.18662758  0.30324646  0.21644665     0.13400
C469        C  0.19626188  0.36144430  0.22424038     0.02800
N470        N  0.23112917  0.37404065  0.19512889    -0.80900
H471        H  0.24643215  0.32537667  0.16799606     0.18300
C472        C  0.20412619  0.37600088  0.24983269    -0.25700
C473        C  0.19449646  0.39800110  0.26686554     0.36300
C474        C  0.17654377  0.40583123  0.25794501    -0.19700
C475        C  0.16876386  0.39126282  0.23215113    -0.25000
C476        C  0.17844683  0.36931870  0.21514693     0.27700
H477        H  0.21775135  0.36966040  0.25693397     0.13400
N478        N  0.20277320  0.41167075  0.29361480    -0.82300
H479        H  0.15514272  0.39732550  0.22485478     0.18300
N480        N  0.17033563  0.35518197  0.18848519    -0.80900
H481        H  0.21606293  0.40371114  0.29665027     0.33900
H482        H  0.19538452  0.40475110  0.31307791     0.38400
H483        H  0.15714853  0.36338476  0.18491584     0.33900
H484        H  0.17797288  0.36145826  0.16905978     0.30600
H485        H  0.24377394  0.37489711  0.18402583     0.33900
H486        H  0.22240189  0.38821468  0.18264485     0.30600
H487        H  0.19919166  0.25048920  0.16481986     0.38400
H488        H  0.18903639  0.25402517  0.19947357     0.33900
C489        C  0.22097411  0.70449603  0.50404143    -0.19800
C490        C  0.22350357  0.67280670  0.50312629     0.36400
C491        C  0.21301562  0.65535963  0.48260003    -0.25800
C492        C  0.20008238  0.66898417  0.46326180     0.02800
C493        C  0.19740003  0.70051832  0.46434013     0.27600
C494        C  0.20791972  0.71804428  0.48476402    -0.24900
N495        N  0.23728368  0.65868364  0.52186704    -0.82300
H496        H  0.21499098  0.63105779  0.48145149     0.13400
C497        C  0.18956693  0.64979761  0.44175911     0.02800
N498        N  0.18417867  0.71454258  0.44442776    -0.80900
H499        H  0.20620063  0.74241471  0.48530728     0.18300
C500        C  0.17181548  0.64138971  0.44973882    -0.25700
C501        C  0.16180811  0.62148248  0.43089989     0.36300
C502        C  0.16974474  0.61016368  0.40332405    -0.19700
C503        C  0.18745549  0.61915692  0.39519101    -0.25000
C504        C  0.19741686  0.63903040  0.41408704     0.27700
H505        H  0.16596605  0.64978746  0.47117620     0.13400
N506        N  0.14394531  0.61192564  0.44029938    -0.82300
H507        H  0.19352790  0.61068805  0.37397303     0.18300
N508        N  0.21551467  0.64814753  0.40552627    -0.80900
H509        H  0.14011519  0.62255269  0.46099886     0.33900
H510        H  0.14459958  0.58874035  0.44500958     0.38400
H511        H  0.21935372  0.63804612  0.38456960     0.33900
H512        H  0.21526148  0.67150933  0.40162509     0.30600
H513        H  0.18381521  0.73792310  0.44819309     0.33900
H514        H  0.18847707  0.71135568  0.42152514     0.30600
H515        H  0.23315035  0.66025719  0.54500108     0.38400
H516        H  0.23814238  0.63554783  0.51688615     0.33900
C517        C  0.54217369  0.99038527  0.81191628    -0.19800
C518        C  0.53366012  0.98239450  0.84020658     0.36400
C519        C  0.51458170  0.98298522  0.84235270    -0.25800
C520        C  0.50388980  0.99205698  0.81716780     0.02800
C521        C  0.51228759  0.00057508  0.78914478     0.27600
C522        C  0.53136466  0.99976067  0.78682059    -0.24900
N523        N  0.54435770  0.97454282  0.86690867    -0.82300
H524        H  0.50797967  0.97683340  0.86392906     0.13400
C525        C  0.48385894  0.99267602  0.82052226     0.02800
N526        N  0.50136700  0.00971774  0.76313078    -0.80900
H527        H  0.53780056  0.00593241  0.76512249     0.18300
C528        C  0.47475930  0.02057965  0.82029979    -0.25700
C529        C  0.45570869  0.02205287  0.82285552     0.36300
C530        C  0.44564367  0.99497713  0.82591692    -0.19700
C531        C  0.45483759  0.96707797  0.82622527    -0.25000
C532        C  0.47386728  0.96565761  0.82358681     0.27700
H533        H  0.48257870  0.04123169  0.81784572     0.13400
N534        N  0.44657114  0.05082098  0.82153034    -0.82300
H535        H  0.44714319  0.94630206  0.82865460     0.18300
N536        N  0.48310250  0.93693717  0.82376161    -0.80900
H537        H  0.45598111  0.06844068  0.81941035     0.33900
H538        H  0.43869578  0.05107998  0.80134749     0.38400
H539        H  0.47378807  0.91924396  0.82638437     0.33900
H540        H  0.48918325  0.93404719  0.80202084     0.30600
H541        H  0.50962669  0.01540382  0.74426522     0.33900
H542        H  0.49362853  0.99102181  0.75626685     0.30600
H543        H  0.55172716  0.99377114  0.87337821     0.38400
H544        H  0.53597652  0.96912274  0.88571174     0.33900
C545        C  0.26747577  0.77875482  0.67603884    -0.19800
C546        C  0.28517217  0.78818873  0.66753286     0.36400
C547        C  0.29412585  0.81019430  0.68546055    -0.25800
C548        C  0.28602523  0.82238626  0.71219713     0.02800
C549        C  0.26849072  0.81258407  0.72102833     0.27600
C550        C  0.25935117  0.79107315  0.70272636    -0.24900
N551        N  0.29410540  0.77503840  0.64104654    -0.82300
H552        H  0.30754873  0.81784314  0.67862110     0.13400
C553        C  0.29600165  0.84564939  0.73047715     0.02800
N554        N  0.26011804  0.82431908  0.74869973    -0.80900
H555        H  0.24579587  0.78387169  0.70930498     0.18300
C556        C  0.28788536  0.87397999  0.73563745    -0.25700
C557        C  0.29699118  0.89689215  0.75211812     0.36300
C558        C  0.31463680  0.89130383  0.76389282    -0.19700
C559        C  0.32278694  0.86296211  0.75850717    -0.25000
C560        C  0.31361790  0.84002381  0.74215769     0.27700
H561        H  0.27448726  0.87842562  0.72618362     0.13400
N562        N  0.28854903  0.92601387  0.75609374    -0.82300
H563        H  0.33625354  0.85845001  0.76761207     0.18300
N564        N  0.32203018  0.81092825  0.73766400    -0.80900
H565        H  0.27553241  0.92624276  0.74631189     0.33900
H566        H  0.29628678  0.94177908  0.74374170     0.38400
H567        H  0.33501254  0.81049533  0.74756565     0.33900
H568        H  0.31423066  0.79494390  0.74960456     0.30600
H569        H  0.24719808  0.81490489  0.75185728     0.33900
H570        H  0.26802226  0.81736541  0.76754657     0.30600
H571        H  0.29611461  0.75204765  0.64570723     0.38400
H572        H  0.30701443  0.78450524  0.63793673     0.33900
C573        C  0.31814532  0.08935347  0.92175410    -0.19800
C574        C  0.32616972  0.10284212  0.94823687     0.36400
C575        C  0.31624806  0.12430615  0.96550303    -0.25800
C576        C  0.29853075  0.13247109  0.95700889     0.02800
C577        C  0.29047202  0.11917714  0.93071546     0.27600
C578        C  0.30033657  0.09771440  0.91338817    -0.24900
N579        N  0.34416039  0.09432780  0.95797340    -0.82300
H580        H  0.32229766  0.13465429  0.98582535     0.13400
C581        C  0.28857991  0.15515473  0.97583484     0.02800
N582        N  0.27234243  0.12767565  0.92168777    -0.80900
H583        H  0.29413413  0.08772513  0.89303370     0.18300
C584        C  0.28755807  0.18508401  0.96533353    -0.25700
C585        C  0.27819750  0.20730547  0.98245936     0.36300
C586        C  0.26925438  0.19916992  0.01031873    -0.19700
C587        C  0.27067312  0.16920410  0.02107913    -0.25000
C588        C  0.28027225  0.14711793  0.00409312     0.27700
H589        H  0.29422929  0.19112270  0.94378847     0.13400
N590        N  0.27789923  0.23814577  0.97183513    -0.82300
H591        H  0.26382998  0.16280687  0.04235008     0.18300
N592        N  0.28149556  0.11650714  0.01520347    -0.80900
H593        H  0.28508715  0.24030186  0.95101691     0.33900
H594        H  0.28475548  0.25127349  0.98827862     0.38400
H595        H  0.27477178  0.11433746  0.03646414     0.33900
H596        H  0.27459549  0.10265185  0.99944886     0.30600
H597        H  0.26844529  0.11605785  0.90162161     0.33900
H598        H  0.26348735  0.12074598  0.93928565     0.30600
H599        H  0.34369645  0.07159819  0.96464694     0.38400
H600        H  0.34807509  0.10664647  0.97758972     0.33900
C601        C  0.82113175  0.38341832  0.74047317    -0.19800
C602        C  0.80639381  0.36669848  0.75263553     0.36400
C603        C  0.79799789  0.34450798  0.73411688    -0.25800
C604        C  0.80407693  0.33875028  0.70383691     0.02800
C605        C  0.81916302  0.35468113  0.69206634     0.27600
C606        C  0.82760242  0.37676299  0.71056536    -0.24900
N607        N  0.80007346  0.37218467  0.78369576    -0.82300
H608        H  0.78638258  0.33213986  0.74300243     0.13400
C609        C  0.79352284  0.31794806  0.68379828     0.02800
N610        N  0.82561848  0.34866292  0.66118302    -0.80900
H611        H  0.83898069  0.38942811  0.70125919     0.18300
C612        C  0.78374436  0.33018796  0.65892246    -0.25700
C613        C  0.77227467  0.31204348  0.64072245     0.36300
C614        C  0.77101215  0.28068585  0.64693113    -0.19700
C615        C  0.78115163  0.26833800  0.67154150    -0.25000
C616        C  0.79234192  0.28673311  0.69015493     0.27700
H617        H  0.78455114  0.35429795  0.65447078     0.13400
N618        N  0.76136003  0.32558686  0.61678435    -0.82300
H619        H  0.78020182  0.24432412  0.67638811     0.18300
N620        N  0.80237705  0.27399211  0.71559800    -0.80900
H621        H  0.76393495  0.34880840  0.61519048     0.33900
H622        H  0.74771107  0.32333948  0.62328403     0.38400
H623        H  0.79993414  0.25073252  0.71729444     0.33900
H624        H  0.81622718  0.27649896  0.71065120     0.30600
H625        H  0.83673931  0.36248998  0.65590001     0.33900
H626        H  0.83036321  0.32634002  0.66068119     0.30600
H627        H  0.81059644  0.36625564  0.79883671     0.38400
H628        H  0.78908760  0.35807064  0.78898094     0.33900
C629        C  0.66947133  0.09884643  0.73477928    -0.19800
C630        C  0.68480090  0.11375688  0.74742654     0.36400
C631        C  0.69384959  0.13591775  0.72980884    -0.25800
C632        C  0.68785418  0.14359277  0.69998094     0.02800
C633        C  0.67232302  0.12935080  0.68763210     0.27600
C634        C  0.66325728  0.10719359  0.70517622    -0.24900
N635        N  0.69102456  0.10664642  0.77815951    -0.82300
H636        H  0.70579160  0.14701790  0.73917740     0.13400
C637        C  0.69850697  0.16550532  0.68132188     0.02800
N638        N  0.66594649  0.13731419  0.65720321    -0.80900
H639        H  0.65151162  0.09591085  0.69536882     0.18300
C640        C  0.70736803  0.15527777  0.65448013    -0.25700
C641        C  0.71840231  0.17474165  0.63690181     0.36300
C642        C  0.72036375  0.20529399  0.64612442    -0.19700
C643        C  0.71125337  0.21559460  0.67282600    -0.25000
C644        C  0.70031125  0.19599151  0.69049958     0.27700
H645        H  0.70602575  0.13174550  0.64770900     0.13400
N646        N  0.72804158  0.16335639  0.61028098    -0.82300
H647        H  0.71267916  0.23903288  0.67986600     0.18300
N648        N  0.69101736  0.20684082  0.71768520    -0.80900
H649        H  0.72504916  0.14049247  0.60660157     0.33900
H650        H  0.74196079  0.16455644  0.61514410     0.38400
H651        H  0.69381816  0.22977875  0.72134056     0.33900
H652        H  0.67703764  0.20523082  0.71349310     0.30600
H653        H  0.65443604  0.12463437  0.65139206     0.33900
H654        H  0.66183172  0.15998010  0.65792597     0.30600
H655        H  0.68077715  0.11306878  0.79367612     0.38400
H656        H  0.70251164  0.11946638  0.78381200     0.33900
C657        C  0.67345640  0.10181276  0.38017757    -0.19800
C658        C  0.68499810  0.12405165  0.36730696     0.36400
C659        C  0.69461260  0.14366707  0.38709220    -0.25800
C660        C  0.69315794  0.14137735  0.41949970     0.02800
C661        C  0.68153248  0.11922102  0.43234390     0.27600
C662        C  0.67165101  0.09996900  0.41254347    -0.24900
N663        N  0.68664033  0.12709751  0.33423451    -0.82300
H664        H  0.70319152  0.16108585  0.37716324     0.13400
C665        C  0.70381185  0.16248679  0.43952581     0.02800
N666        N  0.68004379  0.11599639  0.46542327    -0.80900
H667        H  0.66285326  0.08285574  0.42247190     0.18300
C668        C  0.69483451  0.17967267  0.46236238    -0.25700
C669        C  0.70436888  0.20041900  0.48105501     0.36300
C670        C  0.72325366  0.20434047  0.47657661    -0.19700
C671        C  0.73223341  0.18723083  0.45379390    -0.25000
C672        C  0.72278492  0.16608036  0.43551387     0.27700
H673        H  0.68025332  0.17730854  0.46521041     0.13400
N674        N  0.69489598  0.21798186  0.50408543    -0.82300
H675        H  0.74674940  0.19018794  0.45052434     0.18300
N676        N  0.73241055  0.14804607  0.41306183    -0.80900
H677        H  0.68109022  0.21227311  0.50456323     0.33900
H678        H  0.69561095  0.24070861  0.49744499     0.38400
H679        H  0.74624958  0.15353773  0.41290047     0.33900
H680        H  0.73149711  0.12544332  0.42006545     0.30600
H681        H  0.67089466  0.09874303  0.47108805     0.33900
H682        H  0.69277080  0.10923477  0.47375438     0.30600
H683        H  0.67393604  0.13372343  0.32568644     0.38400
H684        H  0.69576434  0.14439205  0.32858816     0.33900
C685        C  0.76350409  0.29493900  0.47903971    -0.19800
C686        C  0.75842033  0.32572042  0.47855531     0.36400
C687        C  0.76907792  0.34649448  0.46176752    -0.25800
C688        C  0.78465349  0.33695450  0.44559076     0.02800
C689        C  0.78972110  0.30618396  0.44608845     0.27600
C690        C  0.77905697  0.28543532  0.46279853    -0.24900
N691        N  0.74240247  0.33562083  0.49484186    -0.82300
H692        H  0.76524493  0.37018967  0.46119060     0.13400
C693        C  0.79543289  0.35938135  0.42785937     0.02800
N694        N  0.80560381  0.29618724  0.42946895    -0.80900
H695        H  0.78285492  0.26171698  0.46320137     0.18300
C696        C  0.81254366  0.36826259  0.43889810    -0.25700
C697        C  0.82299440  0.38997639  0.42300283     0.36300
C698        C  0.81626437  0.40262201  0.39510668    -0.19700
C699        C  0.79912373  0.39345266  0.38412145    -0.25000
C700        C  0.78868393  0.37189175  0.40015039     0.27700
H701        H  0.81758733  0.35857257  0.46031518     0.13400
N702        N  0.84011489  0.39975054  0.43559995    -0.82300
H703        H  0.79393348  0.40282876  0.36267949     0.18300
N704        N  0.77128574  0.36248652  0.38837033    -0.80900
H705        H  0.84308223  0.38808915  0.45607337     0.33900
H706        H  0.83876578  0.42258182  0.44163847     0.38400
H707        H  0.76822120  0.37394052  0.36781809     0.33900
H708        H  0.77226867  0.33951828  0.38267907     0.30600
H709        H  0.80752052  0.27289722  0.43235254     0.33900
H710        H  0.80320941  0.29970619  0.40584638     0.30600
H711        H  0.73117855  0.32524933  0.48440304     0.38400
H712        H  0.74059697  0.35896591  0.49224440     0.33900
C713        C  0.76753523  0.69922802  0.97861733    -0.19800
C714        C  0.75844156  0.67971294  0.95772718     0.36400
C715        C  0.76834243  0.65728741  0.94180201    -0.25800
C716        C  0.78704277  0.65324164  0.94691214     0.02800
C717        C  0.79599507  0.67185329  0.96874802     0.27600
C718        C  0.78619170  0.69478451  0.98417320    -0.24900
N719        N  0.73914837  0.68257170  0.95294373    -0.82300
H720        H  0.76146421  0.64303220  0.92504915     0.13400
C721        C  0.79719294  0.63032574  0.92824999     0.02800
N722        N  0.81501385  0.66738921  0.97511053    -0.80900
H723        H  0.79320006  0.70952762  0.00031144     0.18300
C724        C  0.81211114  0.63971126  0.91036834    -0.25700
C725        C  0.82178599  0.61921096  0.89158392     0.36300
C726        C  0.81647090  0.58846743  0.89065366    -0.19700
C727        C  0.80138350  0.57912834  0.90826027    -0.25000
C728        C  0.79179456  0.59965712  0.92725979     0.27700
H729        H  0.81601102  0.66336483  0.91062290     0.13400
N730        N  0.83667388  0.62974824  0.87284861    -0.82300
H731        H  0.79730255  0.55557017  0.90772842     0.18300
N732        N  0.77674760  0.58943649  0.94582210    -0.80900
H733        H  0.83889797  0.65287257  0.87639161     0.33900
H734        H  0.83290736  0.62719841  0.84961493     0.38400
H735        H  0.77449732  0.56629646  0.94242495     0.33900
H736        H  0.78036616  0.59216866  0.96910185     0.30600
H737        H  0.81956466  0.68296526  0.99164609     0.33900
H738        H  0.81648002  0.64590738  0.98497019     0.30600
H739        H  0.73271562  0.67754115  0.97395168     0.38400
H740        H  0.73458047  0.66659444  0.93683056     0.33900
C741        C  0.67392579  0.89660083  0.88632890    -0.19800
C742        C  0.68973154  0.90477007  0.90307796     0.36400
C743        C  0.69946498  0.88246027  0.91949036    -0.25800
C744        C  0.69371530  0.85216675  0.91996207     0.02800
C745        C  0.67780525  0.84402094  0.90365120     0.27600
C746        C  0.66803398  0.86631423  0.88721921    -0.24900
N747        N  0.69563518  0.93576879  0.90407412    -0.82300
H748        H  0.71150874  0.88880034  0.93243609     0.13400
C749        C  0.70449175  0.82940833  0.93784079     0.02800
N750        N  0.67180364  0.81305353  0.90342976    -0.80900
H751        H  0.65597476  0.85981544  0.87442120     0.18300
C752        C  0.69623327  0.81331264  0.96216148    -0.25700
C753        C  0.70617937  0.79239526  0.98014815     0.36300
C754        C  0.72486721  0.78768982  0.97392354    -0.19700
C755        C  0.73302937  0.80355127  0.94934147    -0.25000
C756        C  0.72306060  0.82422988  0.93122299     0.27700
H757        H  0.68198541  0.81728363  0.96726490     0.13400
N758        N  0.69733542  0.77572551  0.00447084    -0.82300
H759        H  0.74733946  0.79996495  0.94443976     0.18300
N760        N  0.73170581  0.83996527  0.90604239    -0.80900
H761        H  0.68361491  0.78184511  0.00609596     0.33900
H762        H  0.69764825  0.75282077  0.99832876     0.38400
H763        H  0.74541059  0.83377249  0.90431183     0.33900
H764        H  0.72545191  0.83293383  0.88549363     0.30600
H765        H  0.65986290  0.81079903  0.89045631     0.33900
H766        H  0.68177495  0.80023070  0.89211303     0.30600
H767        H  0.68558206  0.94823525  0.91560083     0.38400
H768        H  0.70752538  0.93789510  0.91719824     0.33900
C769        C  0.73233365  0.80895844  0.13905383    -0.19800
C770        C  0.73831467  0.82558141  0.16522376     0.36400
C771        C  0.72676387  0.84761169  0.17845898    -0.25800
C772        C  0.70965379  0.85392019  0.16559397     0.03200
C773        C  0.70399904  0.83848574  0.13875416     0.27600
C774        C  0.71525285  0.81596430  0.12603137    -0.24900
N775        N  0.75610730  0.82040299  0.17799897    -0.82300
H776        H  0.73110417  0.86000161  0.19885527     0.13400
C777        C  0.69759253  0.87641317  0.18070645     0.02800
N778        N  0.68692437  0.84596579  0.12435640    -0.80900
H779        H  0.71045654  0.80340005  0.10606278     0.18300
C780        C  0.69904917  0.90704476  0.17265609    -0.25700
C781        C  0.68781736  0.92898895  0.18666703     0.36300
C782        C  0.67490315  0.91997832  0.20908884    -0.19700
C783        C  0.67322015  0.88918732  0.21660443    -0.25000
C784        C  0.68457986  0.86731316  0.20283702     0.27700
H785        H  0.70899151  0.91378397  0.15542441     0.13400
N786        N  0.68933609  0.96030960  0.17802684    -0.82300
H787        H  0.66340251  0.88231589  0.23398435     0.18300
N788        N  0.68336325  0.83605336  0.21190036    -0.80900
H789        H  0.69950847  0.96315504  0.16131030     0.33900
H790        H  0.67707328  0.96664536  0.16758371     0.38400
H791        H  0.67340259  0.83324414  0.22898309     0.33900
H792        H  0.67905041  0.82357909  0.19266731     0.30600
H793        H  0.68497891  0.83302948  0.10430813     0.33900
H794        H  0.67648604  0.84006221  0.13965296     0.30600
H795        H  0.76565148  0.82650061  0.16113787     0.38400
H796        H  0.75836327  0.83450050  0.19711304     0.33900
C797        C  0.77035073  0.71432968  0.14889323    -0.19800
C798        C  0.78534983  0.72349628  0.16712244     0.36400
C799        C  0.79460970  0.70201957  0.18544527    -0.25800
C800        C  0.78934629  0.67145980  0.18565671     0.02800
C801        C  0.77458387  0.66220146  0.16695804     0.27600
C802        C  0.76522222  0.68371866  0.14884489    -0.24900
N803        N  0.79123964  0.75452730  0.16664022    -0.82300
H804        H  0.80596595  0.70912395  0.19970979     0.13400
C805        C  0.79925071  0.64934702  0.20570707     0.02800
N806        N  0.76926684  0.63089609  0.16627949    -0.80900
H807        H  0.75382507  0.67662783  0.13467122     0.18300
C808        C  0.78971541  0.63389958  0.22899613    -0.25700
C809        C  0.79838664  0.61251837  0.24822569     0.36300
C810        C  0.81706805  0.60570203  0.24362240    -0.19700
C811        C  0.82663411  0.62170732  0.22052599    -0.25000
C812        C  0.81796976  0.64342652  0.20166465     0.27700
H813        H  0.77541195  0.63890618  0.23244172     0.13400
N814        N  0.78828441  0.59835283  0.27276899    -0.82300
H815        H  0.84089367  0.61688013  0.21659814     0.18300
N816        N  0.82804926  0.65915126  0.17807506    -0.80900
H817        H  0.77472443  0.60556463  0.27268683     0.33900
H818        H  0.79387619  0.60565939  0.29376877     0.38400
H819        H  0.84169125  0.65237895  0.17815956     0.33900
H820        H  0.82271066  0.65274881  0.15658334     0.30600
H821        H  0.75815349  0.62778749  0.15149486     0.33900
H822        H  0.78007633  0.61854423  0.15679139     0.30600
H823        H  0.79574004  0.75931765  0.14416201     0.38400
H824        H  0.80241908  0.75759353  0.18129066     0.33900
loop_ 
_geom_bond_atom_site_label_1 
_geom_bond_atom_site_label_2 
_geom_bond_distance 
_geom_bond_site_symmetry_2 
_ccdc_geom_bond_type 
C1            C2   1.405       .  A
C1            C6   1.405       .  A
C1          C769   1.497       .  S
C2            C3   1.413       .  A
C2            H7   1.078       .  S
C3            C4   1.419       .  A
C3           C12   1.519       .  S
C4            C5   1.408       .  A
C4            H8   1.078       .  S
C5            C6   1.404       .  A
C5          C797   1.492       .  S
C6            H9   1.083       .  S
C10          C11   1.407   1_556  A
C10          C15   1.403       .  A
C10         C713   1.492       .  S
C11          C12   1.416       .  A
C11          H16   1.078       .  S
C12          C13   1.421       .  A
C13          C14   1.406   1_554  A
C13          H17   1.078       .  S
C14          C15   1.400       .  A
C14         C754   1.494       .  S
C15          H18   1.084       .  S
C19          C20   1.403       .  A
C19          C24   1.398       .  A
C19         C685   1.480       .  S
C20          C21   1.416       .  A
C20          H25   1.080       .  S
C21          C22   1.416       .  A
C21          C30   1.509       .  S
C22          C23   1.405       .  A
C22          H26   1.080       .  S
C23          C24   1.399       .  A
C23         C670   1.485       .  S
C24          H27   1.084       .  S
C28          C29   1.405       .  A
C28          C33   1.400       .  A
C28         C642   1.487       .  S
C29          C30   1.413       .  A
C29          H34   1.080       .  S
C30          C31   1.414       .  A
C31          C32   1.406       .  A
C31          H35   1.080       .  S
C32          C33   1.400       .  A
C32         C614   1.488       .  S
C33          H36   1.084       .  S
N37          N38   1.321       .  A
N37          C41   1.345       .  A
N37         Cu45   2.071       .  S
N38          C39   1.346       .  A
N38         Cu44   2.082       .  S
C39          C40   1.388       .  A
C39          H42   1.081       .  S
C40          C41   1.386       .  A
C40         C558   1.487       .  S
C41          H43   1.082       .  S
Cu44         N47   2.083   1_565  S
Cu45         N55   2.070       .  S
Cu46         N48   2.072       .  S
Cu46         N54   2.072       .  S
N47          N48   1.322       .  A
N47          C51   1.346       .  A
N48          C49   1.345       .  A
C49          C50   1.387       .  A
C49          H52   1.081       .  S
C50          C51   1.388       .  A
C50         C573   1.489       .  S
C51          H53   1.082       .  S
N54          N55   1.322   1_545  A
N54          C58   1.345       .  A
N55          C56   1.343       .  A
C56          C57   1.384       .  A
C56          H59   1.082       .  S
C57          C58   1.385   1_565  A
C57         C530   1.480       .  S
C58          H60   1.082       .  S
N61          N62   1.321       .  A
N61          C65   1.347       .  A
N61         Cu69   2.078       .  S
N62          C63   1.347       .  A
N62         Cu68   2.085       .  S
C63          C64   1.390       .  A
C63          H66   1.081       .  S
C64          C65   1.388       .  A
C64         C741   1.493       .  S
C65          H67   1.082       .  S
Cu68         N71   2.084   1_565  S
Cu69         N79   2.077       .  S
Cu70         N72   2.076       .  S
Cu70         N78   2.076       .  S
N71          N72   1.323       .  A
N71          C75   1.346       .  A
N72          C73   1.346       .  A
C73          C74   1.386       .  A
C73          H76   1.082       .  S
C74          C75   1.387       .  A
C74         C629   1.486       .  S
C75          H77   1.081       .  S
N78          N79   1.322   1_545  A
N78          C82   1.346       .  A
N79          C80   1.344       .  A
C80          C81   1.385       .  A
C80          H83   1.081       .  S
C81          C82   1.386   1_565  A
C81         C517   1.485       .  S
C82          H84   1.082       .  S
N85          N86   1.321       .  A
N85          C89   1.345       .  A
N85         Cu93   2.072       .  S
N86          C87   1.343       .  A
N86         Cu92   2.067       .  S
C87          C88   1.384       .  A
C87          H90   1.082       .  S
C88          C89   1.386       .  A
C88         C502   1.481       .  S
C89          H91   1.082       .  S
Cu92         N95   2.068       .  S
Cu93        N103   2.073       .  S
Cu94         N96   2.081       .  S
Cu94        N102   2.080       .  S
N95          N96   1.320       .  A
N95          C99   1.344       .  A
N96          C97   1.346       .  A
C97          C98   1.390       .  A
C97         H100   1.082       .  S
C98          C99   1.387       .  A
C98         C474   1.491       .  S
C99         H101   1.081       .  S
N102        N103   1.323       .  A
N102        C106   1.345       .  A
N103        C104   1.345       .  A
C104        C105   1.382       .  A
C104        H107   1.082       .  S
C105        C106   1.383       .  A
C105        C446   1.476       .  S
C106        H108   1.082       .  S
N109        N110   1.322       .  A
N109        C113   1.345       .  A
N109       Cu117   2.069       .  S
N110        C111   1.346       .  A
N110       Cu116   2.087       .  S
C111        C112   1.388       .  A
C111        H114   1.082       .  S
C112        C113   1.386       .  A
C112        C698   1.488       .  S
C113        H115   1.081       .  S
Cu116       N119   2.088       .  S
Cu117       N127   2.069       .  S
Cu118       N120   2.081       .  S
Cu118       N126   2.080       .  S
N119        N120   1.320       .  A
N119        C123   1.347       .  A
N120        C121   1.347       .  A
C121        C122   1.392       .  A
C121        H124   1.081       .  S
C122        C123   1.393       .  A
C122        C810   1.501       .  S
C123        H125   1.080       .  S
N126        N127   1.323       .  A
N126        C130   1.344       .  A
N127        C128   1.345       .  A
C128        C129   1.383       .  A
C128        H131   1.082       .  S
C129        C130   1.383       .  A
C129        C433   1.476       .  S
C130        H132   1.082       .  S
C133        C134   1.401       .  A
C133        C138   1.404       .  A
C133        C405   1.485       .  S
C134        C135   1.403       .  A
C134        H139   1.084       .  S
C135        C136   1.405       .  A
C135        C545   1.488       .  S
C136        C137   1.412       .  A
C136        H140   1.080       .  S
C137        C138   1.412       .  A
C137        C144   1.505       .  S
C138        H141   1.080       .  S
C142        C143   1.403       .  A
C142        C147   1.396       .  A
C142        C489   1.478       .  S
C143        C144   1.415       .  A
C143        H148   1.080       .  S
C144        C145   1.415       .  A
C145        C146   1.401       .  A
C145        H149   1.081       .  S
C146        C147   1.395       .  A
C146        C377   1.473       .  S
C147        H150   1.085       .  S
N151        N152   1.323       .  A
N151        C155   1.347       .  A
N151       Cu159   2.085       .  S
N152        C153   1.346       .  A
N152       Cu158   2.077       .  S
C153        C154   1.385       .  A
C153        H156   1.082       .  S
C154        C155   1.386       .  A
C154        C349   1.483       .  S
C155        H157   1.082       .  S
Cu158       N161   2.078       .  S
Cu159       N169   2.085       .  S
Cu160       N162   2.083       .  S
Cu160       N168   2.084       .  S
N161        N162   1.323       .  A
N161        C165   1.347       .  A
N162        C163   1.345       .  A
C163        C164   1.386       .  A
C163        H166   1.082       .  S
C164        C165   1.386       .  A
C164        C418   1.485       .  S
C165        H167   1.082       .  S
N168        N169   1.322       .  A
N168        C172   1.348       .  A
N169        C170   1.346       .  A
C170        C171   1.389       .  A
C170        H173   1.081       .  S
C171        C172   1.389       .  A
C171        C321   1.492       .  S
C172        H174   1.082       .  S
N175        N176   1.323       .  A
N175        C179   1.343       .  A
N175       Cu183   2.070       .  S
N176        C177   1.347       .  A
N176       Cu182   2.084       .  S
C177        C178   1.387       .  A
C177        H180   1.082       .  S
C178        C179   1.382       .  A
C178        C601   1.481       .  S
C179        H181   1.082       .  S
Cu182       N185   2.084       .  S
Cu183       N193   2.071       .  S
Cu184       N186   2.084       .  S
Cu184       N192   2.084       .  S
N185        N186   1.323       .  A
N185        C189   1.348       .  A
N186        C187   1.345       .  A
C187        C188   1.386       .  A
C187        H190   1.081       .  S
C188        C189   1.387       .  A
C188        C726   1.488       .  S
C189        H191   1.082       .  S
N192        N193   1.321       .  A
N192        C196   1.348       .  A
N193        C194   1.345       .  A
C194        C195   1.385       .  A
C194        H197   1.082       .  S
C195        C196   1.389       .  A
C195        C334   1.487       .  S
C196        H198   1.082       .  S
C199        C200   1.407       .  A
C199        C204   1.403       .  A
C199        C306   1.490       .  S
C200        C201   1.414       .  A
C200        H205   1.079       .  S
C201        C202   1.415       .  A
C201        C212   1.511       .  S
C202        C203   1.403       .  A
C202        H206   1.080       .  S
C203        C204   1.400       .  A
C203        C461   1.481       .  S
C204        H207   1.084       .  S
C208        C209   1.401       .  A
C208        C213   1.408       .  A
C208        C586   1.491       .  S
C209        C210   1.397       .  A
C209        H214   1.084   1_554  S
C210        C211   1.401       .  A
C210        C362   1.481       .  S
C211        C212   1.414       .  A
C211        H215   1.079       .  S
C212        C213   1.418       .  A
C213        H216   1.079       .  S
N217        N218   1.321       .  A
N217        C221   1.347       .  A
N217       Cu225   2.082       .  S
N218        C219   1.343       .  A
N218       Cu224   2.074   1_545  S
C219        C220   1.389       .  A
C219        H222   1.080       .  S
C220        C221   1.391       .  A
C220        C293   1.494       .  S
C221        H223   1.082       .  S
Cu224       N227   2.074       .  S
Cu225       N235   2.082   1_545  S
Cu226       N228   2.070       .  S
Cu226       N234   2.072       .  S
N227        N228   1.320       .  A
N227        C231   1.344       .  A
N228        C229   1.346       .  A
C229        C230   1.386       .  A
C229        H232   1.082       .  S
C230        C231   1.387       .  A
C230        C390   1.484       .  S
C231        H233   1.082       .  S
N234        N235   1.323       .  A
N234        C238   1.344       .  A
N235        C236   1.346       .  A
C236        C237   1.386       .  A
C236        H239   1.082   1_565  S
C237        C238   1.384       .  A
C237        C265   1.484       .  S
C238        H240   1.081       .  S
N241        N242   1.322       .  A
N241        C245   1.346       .  A
N241       Cu249   2.077       .  S
N242        C243   1.345       .  A
N242       Cu248   2.077   1_565  S
C243        C244   1.384       .  A
C243        H246   1.082       .  S
C244        C245   1.385       .  A
C244        C782   1.481       .  S
C245        H247   1.082       .  S
Cu248       N251   2.077       .  S
Cu249       N259   2.076       .  S
Cu250       N252   2.079       .  S
Cu250       N258   2.079       .  S
N251        N252   1.322       .  A
N251        C255   1.346       .  A
N252        C253   1.345       .  A
C253        C254   1.385       .  A
C253        H256   1.082       .  S
C254        C255   1.386       .  A
C254        C657   1.485       .  S
C255        H257   1.082       .  S
N258        N259   1.321   1_545  A
N258        C262   1.345       .  A
N259        C260   1.345       .  A
C260        C261   1.388       .  A
C260        H263   1.081       .  S
C261        C262   1.389   1_565  A
C261        C278   1.490       .  S
C262        H264   1.082       .  S
C265        C266   1.415       .  A
C265        C270   1.405       .  A
C266        C267   1.406       .  A
C266        N271   1.437       .  S
C267        C268   1.400       .  A
C267        H272   1.084       .  S
C268        C269   1.408       .  A
C268        C273   1.479       .  S
C269        C270   1.405       .  A
C269        N274   1.438       .  S
C270        H275   1.083       .  S
N271        H291   1.045       .  S
N271        H292   1.046       .  S
C273        C276   1.400       .  A
C273        C280   1.407   1_565  A
N274        H289   1.046       .  S
N274        H290   1.046   1_565  S
C276        C277   1.407       .  A
C276        H281   1.084       .  S
C277        C278   1.417       .  A
C277        N282   1.437       .  S
C278        C279   1.407   1_565  A
C279        C280   1.405       .  A
C279        H283   1.082       .  S
C280        N284   1.438       .  S
N282        H285   1.046       .  S
N282        H286   1.046       .  S
N284        H287   1.045       .  S
N284        H288   1.046       .  S
C293        C294   1.417       .  A
C293        C298   1.407       .  A
C294        C295   1.405       .  A
C294        N299   1.437       .  S
C295        C296   1.402       .  A
C295        H300   1.083       .  S
C296        C297   1.412       .  A
C296        C301   1.492       .  S
C297        C298   1.408       .  A
C297        N302   1.438       .  S
C298        H303   1.082       .  S
N299        H319   1.045       .  S
N299        H320   1.046       .  S
C301        C304   1.404       .  A
C301        C308   1.414       .  A
N302        H317   1.045       .  S
N302        H318   1.046       .  S
C304        C305   1.403       .  A
C304        H309   1.084       .  S
C305        C306   1.411       .  A
C305        N310   1.432       .  S
C306        C307   1.405       .  A
C307        C308   1.407       .  A
C307        H311   1.083       .  S
C308        N312   1.438       .  S
N310        H313   1.046       .  S
N310        H314   1.045       .  S
N312        H315   1.046       .  S
N312        H316   1.045       .  S
C321        C322   1.416       .  A
C321        C326   1.407       .  A
C322        C323   1.408       .  A
C322        N327   1.437       .  S
C323        C324   1.401       .  A
C323        H328   1.084       .  S
C324        C325   1.410       .  A
C324        C329   1.489   1_455  S
C325        C326   1.410       .  A
C325        N330   1.438       .  S
C326        H331   1.083       .  S
N327        H347   1.045       .  S
N327        H348   1.046       .  S
C329        C332   1.403       .  A
C329        C336   1.410       .  A
N330        H345   1.046       .  S
N330        H346   1.046       .  S
C332        C333   1.409       .  A
C332        H337   1.084       .  S
C333        C334   1.413       .  A
C333        N338   1.437       .  S
C334        C335   1.405       .  A
C335        C336   1.407       .  A
C335        H339   1.083       .  S
C336        N340   1.438       .  S
N338        H341   1.046       .  S
N338        H342   1.046       .  S
N340        H343   1.045       .  S
N340        H344   1.046       .  S
C349        C350   1.413       .  A
C349        C354   1.405       .  A
C350        C351   1.406       .  A
C350        N355   1.437       .  S
C351        C352   1.401       .  A
C351        H356   1.084       .  S
C352        C353   1.408       .  A
C352        C357   1.480       .  S
C353        C354   1.407       .  A
C353        N358   1.437       .  S
C354        H359   1.083       .  S
N355        H375   1.046       .  S
N355        H376   1.046       .  S
C357        C360   1.402       .  A
C357        C364   1.409       .  A
N358        H373   1.046       .  S
N358        H374   1.045       .  S
C360        C361   1.406   1_556  A
C360        H365   1.084       .  S
C361        C362   1.412       .  A
C361        N366   1.438       .  S
C362        C363   1.403   1_554  A
C363        C364   1.405       .  A
C363        H367   1.084       .  S
C364        N368   1.437       .  S
N366        H369   1.045       .  S
N366        H370   1.046       .  S
N368        H371   1.046       .  S
N368        H372   1.046       .  S
C377        C378   1.407       .  A
C377        C382   1.400       .  A
C378        C379   1.407       .  A
C378        N383   1.437       .  S
C379        C380   1.406       .  A
C379        H384   1.083       .  S
C380        C381   1.412       .  A
C380        C385   1.486       .  S
C381        C382   1.403       .  A
C381        N386   1.438       .  S
C382        H387   1.084       .  S
N383        H403   1.046       .  S
N383        H404   1.045       .  S
C385        C388   1.403       .  A
C385        C392   1.411       .  A
N386        H401   1.046       .  S
N386        H402   1.045       .  S
C388        C389   1.404       .  A
C388        H393   1.084       .  S
C389        C390   1.413       .  A
C389        N394   1.437       .  S
C390        C391   1.405       .  A
C391        C392   1.407       .  A
C391        H395   1.083       .  S
C392        N396   1.438       .  S
N394        H397   1.046       .  S
N394        H398   1.045       .  S
N396        H399   1.046       .  S
N396        H400   1.045       .  S
C405        C406   1.412       .  A
C405        C410   1.404       .  A
C406        C407   1.404       .  A
C406        N411   1.438       .  S
C407        C408   1.404       .  A
C407        H412   1.084       .  S
C408        C409   1.413       .  A
C408        C413   1.490       .  S
C409        C410   1.408       .  A
C409        N414   1.437       .  S
C410        H415   1.084       .  S
N411        H431   1.046       .  S
N411        H432   1.045       .  S
C413        C416   1.404       .  A
C413        C420   1.412       .  A
N414        H429   1.046       .  S
N414        H430   1.045       .  S
C416        C417   1.408       .  A
C416        H421   1.084       .  S
C417        C418   1.414       .  A
C417        N422   1.437       .  S
C418        C419   1.404       .  A
C419        C420   1.405       .  A
C419        H423   1.083       .  S
C420        N424   1.438       .  S
N422        H425   1.046       .  S
N422        H426   1.046       .  S
N424        H427   1.046       .  S
N424        H428   1.045       .  S
C433        C434   1.410       .  A
C433        C438   1.401       .  A
C434        C435   1.406       .  A
C434        N439   1.438       .  S
C435        C436   1.406       .  A
C435        H440   1.083       .  S
C436        C437   1.413       .  A
C436        C441   1.490   1_655  S
C437        C438   1.404       .  A
C437        N442   1.438       .  S
C438        H443   1.084       .  S
N439        H459   1.045       .  S
N439        H460   1.046       .  S
C441        C444   1.406       .  A
C441        C448   1.413       .  A
N442        H457   1.046       .  S
N442        H458   1.045       .  S
C444        C445   1.405       .  A
C444        H449   1.083       .  S
C445        C446   1.409       .  A
C445        N450   1.438       .  S
C446        C447   1.401       .  A
C447        C448   1.405       .  A
C447        H451   1.084       .  S
C448        N452   1.438       .  S
N450        H453   1.046       .  S
N450        H454   1.045       .  S
N452        H455   1.046       .  S
N452        H456   1.046   1_455  S
C461        C462   1.410       .  A
C461        C466   1.402       .  A
C462        C463   1.406       .  A
C462        N467   1.438       .  S
C463        C464   1.404       .  A
C463        H468   1.084       .  S
C464        C465   1.412       .  A
C464        C469   1.488       .  S
C465        C466   1.408       .  A
C465        N470   1.437       .  S
C466        H471   1.084       .  S
N467        H487   1.046       .  S
N467        H488   1.046       .  S
C469        C472   1.402       .  A
C469        C476   1.410       .  A
N470        H485   1.045       .  S
N470        H486   1.046       .  S
C472        C473   1.407       .  A
C472        H477   1.084       .  S
C473        C474   1.417       .  A
C473        N478   1.437       .  S
C474        C475   1.406       .  A
C475        C476   1.407       .  A
C475        H479   1.083       .  S
C476        N480   1.438       .  S
N478        H481   1.046       .  S
N478        H482   1.045       .  S
N480        H483   1.046       .  S
N480        H484   1.046       .  S
C489        C490   1.412       .  A
C489        C494   1.404       .  A
C490        C491   1.404       .  A
C490        N495   1.438       .  S
C491        C492   1.401       .  A
C491        H496   1.084       .  S
C492        C493   1.407       .  A
C492        C497   1.475       .  S
C493        C494   1.405       .  A
C493        N498   1.437       .  S
C494        H499   1.084       .  S
N495        H515   1.045       .  S
N495        H516   1.046       .  S
C497        C500   1.399       .  A
C497        C504   1.407       .  A
N498        H513   1.045       .  S
N498        H514   1.046       .  S
C500        C501   1.405       .  A
C500        H505   1.084       .  S
C501        C502   1.414       .  A
C501        N506   1.437       .  S
C502        C503   1.405       .  A
C503        C504   1.404       .  A
C503        H507   1.083       .  S
C504        N508   1.438       .  S
N506        H509   1.046       .  S
N506        H510   1.045       .  S
N508        H511   1.046       .  S
N508        H512   1.046       .  S
C517        C518   1.416       .  A
C517        C522   1.405       .  A
C518        C519   1.405       .  A
C518        N523   1.437       .  S
C519        C520   1.400       .  A
C519        H524   1.084       .  S
C520        C521   1.408   1_565  A
C520        C525   1.479       .  S
C521        C522   1.405   1_545  A
C521        N526   1.438       .  S
C522        H527   1.083   1_565  S
N523        H543   1.045       .  S
N523        H544   1.046       .  S
C525        C528   1.401   1_565  A
C525        C532   1.408       .  A
N526        H541   1.045       .  S
N526        H542   1.046   1_545  S
C528        C529   1.405       .  A
C528        H533   1.084       .  S
C529        C530   1.413   1_545  A
C529        N534   1.437       .  S
C530        C531   1.404       .  A
C531        C532   1.404       .  A
C531        H535   1.083       .  S
C532        N536   1.438       .  S
N534        H537   1.046       .  S
N534        H538   1.046       .  S
N536        H539   1.046       .  S
N536        H540   1.046       .  S
C545        C546   1.414       .  A
C545        C550   1.405       .  A
C546        C547   1.406       .  A
C546        N551   1.438       .  S
C547        C548   1.403       .  A
C547        H552   1.084       .  S
C548        C549   1.412       .  A
C548        C553   1.488       .  S
C549        C550   1.406       .  A
C549        N554   1.438       .  S
C550        H555   1.083       .  S
N551        H571   1.046       .  S
N551        H572   1.046       .  S
C553        C556   1.403       .  A
C553        C560   1.411       .  A
N554        H569   1.046       .  S
N554        H570   1.046       .  S
C556        C557   1.406       .  A
C556        H561   1.084       .  S
C557        C558   1.414       .  A
C557        N562   1.437       .  S
C558        C559   1.406       .  A
C559        C560   1.406       .  A
C559        H563   1.083       .  S
C560        N564   1.438       .  S
N562        H565   1.046       .  S
N562        H566   1.045       .  S
N564        H567   1.046       .  S
N564        H568   1.046       .  S
C573        C574   1.417       .  A
C573        C578   1.407       .  A
C574        C575   1.407       .  A
C574        N579   1.437       .  S
C575        C576   1.400       .  A
C575        H580   1.084       .  S
C576        C577   1.408       .  A
C576        C581   1.481       .  S
C577        C578   1.406       .  A
C577        N582   1.438       .  S
C578        H583   1.083       .  S
N579        H599   1.045       .  S
N579        H600   1.046       .  S
C581        C584   1.400       .  A
C581        C588   1.408   1_556  A
N582        H597   1.046       .  S
N582        H598   1.045       .  S
C584        C585   1.406       .  A
C584        H589   1.084       .  S
C585        C586   1.416   1_556  A
C585        N590   1.438       .  S
C586        C587   1.407       .  A
C587        C588   1.407       .  A
C587        H591   1.084       .  S
C588        N592   1.438       .  S
N590        H593   1.046       .  S
N590        H594   1.045       .  S
N592        H595   1.046       .  S
N592        H596   1.046   1_554  S
C601        C602   1.412       .  A
C601        C606   1.405       .  A
C602        C603   1.407       .  A
C602        N607   1.437       .  S
C603        C604   1.402       .  A
C603        H608   1.084       .  S
C604        C605   1.408       .  A
C604        C609   1.481       .  S
C605        C606   1.404       .  A
C605        N610   1.438       .  S
C606        H611   1.083       .  S
N607        H627   1.046       .  S
N607        H628   1.046       .  S
C609        C612   1.400       .  A
C609        C616   1.409       .  A
N610        H625   1.046       .  S
N610        H626   1.045       .  S
C612        C613   1.403       .  A
C612        H617   1.084       .  S
C613        C614   1.414       .  A
C613        N618   1.438       .  S
C614        C615   1.407       .  A
C615        C616   1.408       .  A
C615        H619   1.084       .  S
C616        N620   1.437       .  S
N618        H621   1.045       .  S
N618        H622   1.046       .  S
N620        H623   1.046       .  S
N620        H624   1.046       .  S
C629        C630   1.415       .  A
C629        C634   1.406       .  A
C630        C631   1.407       .  A
C630        N635   1.437       .  S
C631        C632   1.402       .  A
C631        H636   1.084       .  S
C632        C633   1.408       .  A
C632        C637   1.483       .  S
C633        C634   1.406       .  A
C633        N638   1.438       .  S
C634        H639   1.083       .  S
N635        H655   1.045       .  S
N635        H656   1.046       .  S
C637        C640   1.401       .  A
C637        C644   1.409       .  A
N638        H653   1.045       .  S
N638        H654   1.046       .  S
C640        C641   1.405       .  A
C640        H645   1.084       .  S
C641        C642   1.414       .  A
C641        N646   1.438       .  S
C642        C643   1.406       .  A
C643        C644   1.407       .  A
C643        H647   1.084       .  S
C644        N648   1.437       .  S
N646        H649   1.046       .  S
N646        H650   1.046       .  S
N648        H651   1.046       .  S
N648        H652   1.046       .  S
C657        C658   1.412       .  A
C657        C662   1.404       .  A
C658        C659   1.406       .  A
C658        N663   1.438       .  S
C659        C660   1.405       .  A
C659        H664   1.083       .  S
C660        C661   1.413       .  A
C660        C665   1.493       .  S
C661        C662   1.407       .  A
C661        N666   1.438       .  S
C662        H667   1.083       .  S
N663        H683   1.045       .  S
N663        H684   1.046       .  S
C665        C668   1.406       .  A
C665        C672   1.414       .  A
N666        H681   1.046       .  S
N666        H682   1.045       .  S
C668        C669   1.407       .  A
C668        H673   1.083       .  S
C669        C670   1.412       .  A
C669        N674   1.438       .  S
C670        C671   1.402       .  A
C671        C672   1.406       .  A
C671        H675   1.084       .  S
C672        N676   1.438       .  S
N674        H677   1.046       .  S
N674        H678   1.045       .  S
N676        H679   1.046       .  S
N676        H680   1.045       .  S
C685        C686   1.410       .  A
C685        C690   1.403       .  A
C686        C687   1.408       .  A
C686        N691   1.437       .  S
C687        C688   1.404       .  A
C687        H692   1.084       .  S
C688        C689   1.409       .  A
C688        C693   1.482       .  S
C689        C690   1.405       .  A
C689        N694   1.437       .  S
C690        H695   1.084       .  S
N691        H711   1.046       .  S
N691        H712   1.046       .  S
C693        C696   1.401       .  A
C693        C700   1.407       .  A
N694        H709   1.046       .  S
N694        H710   1.046       .  S
C696        C697   1.408       .  A
C696        H701   1.084       .  S
C697        C698   1.416       .  A
C697        N702   1.437       .  S
C698        C699   1.406       .  A
C699        C700   1.405       .  A
C699        H703   1.083       .  S
C700        N704   1.438       .  S
N702        H705   1.046       .  S
N702        H706   1.046       .  S
N704        H707   1.046       .  S
N704        H708   1.046       .  S
C713        C714   1.415       .  A
C713        C718   1.405       .  A
C714        C715   1.406       .  A
C714        N719   1.438       .  S
C715        C716   1.403       .  A
C715        H720   1.083       .  S
C716        C717   1.413       .  A
C716        C721   1.491       .  S
C717        C718   1.408       .  A
C717        N722   1.438       .  S
C718        H723   1.083   1_556  S
N719        H739   1.046       .  S
N719        H740   1.046       .  S
C721        C724   1.403       .  A
C721        C728   1.412       .  A
N722        H737   1.046       .  S
N722        H738   1.046       .  S
C724        C725   1.406       .  A
C724        H729   1.084       .  S
C725        C726   1.414       .  A
C725        N730   1.437       .  S
C726        C727   1.406       .  A
C727        C728   1.409       .  A
C727        H731   1.083       .  S
C728        N732   1.438       .  S
N730        H733   1.046       .  S
N730        H734   1.046       .  S
N732        H735   1.046       .  S
N732        H736   1.046       .  S
C741        C742   1.415       .  A
C741        C746   1.407       .  A
C742        C743   1.409       .  A
C742        N747   1.437       .  S
C743        C744   1.404       .  A
C743        H748   1.084       .  S
C744        C745   1.412       .  A
C744        C749   1.494       .  S
C745        C746   1.410       .  A
C745        N750   1.438       .  S
C746        H751   1.083       .  S
N747        H767   1.046       .  S
N747        H768   1.046       .  S
C749        C752   1.405       .  A
C749        C756   1.412       .  A
N750        H765   1.046       .  S
N750        H766   1.045       .  S
C752        C753   1.411       .  A
C752        H757   1.083       .  S
C753        C754   1.414       .  A
C753        N758   1.437   1_556  S
C754        C755   1.406       .  A
C755        C756   1.408       .  A
C755        H759   1.084       .  S
C756        N760   1.438       .  S
N758        H761   1.046       .  S
N758        H762   1.046   1_554  S
N760        H763   1.046       .  S
N760        H764   1.046       .  S
C769        C770   1.416       .  A
C769        C774   1.410       .  A
C770        C771   1.410       .  A
C770        N775   1.437       .  S
C771        C772   1.402       .  A
C771        H776   1.084       .  S
C772        C773   1.406       .  A
C772        C777   1.480       .  S
C773        C774   1.403       .  A
C773        N778   1.439       .  S
C774        H779   1.083       .  S
N775        H795   1.045       .  S
N775        H796   1.046       .  S
C777        C780   1.401       .  A
C777        C784   1.409       .  A
N778        H793   1.046       .  S
N778        H794   1.045       .  S
C780        C781   1.407       .  A
C780        H785   1.084       .  S
C781        C782   1.412       .  A
C781        N786   1.437       .  S
C782        C783   1.404       .  A
C783        C784   1.406       .  A
C783        H787   1.084       .  S
C784        N788   1.438       .  S
N786        H789   1.046       .  S
N786        H790   1.046       .  S
N788        H791   1.045       .  S
N788        H792   1.045       .  S
C797        C798   1.414       .  A
C797        C802   1.404       .  A
C798        C799   1.410       .  A
C798        N803   1.438       .  S
C799        C800   1.404       .  A
C799        H804   1.084       .  S
C800        C801   1.413       .  A
C800        C805   1.494       .  S
C801        C802   1.410       .  A
C801        N806   1.437       .  S
C802        H807   1.083       .  S
N803        H823   1.046       .  S
N803        H824   1.046       .  S
C805        C808   1.402       .  A
C805        C812   1.410       .  A
N806        H821   1.045       .  S
N806        H822   1.046       .  S
C808        C809   1.409       .  A
C808        H813   1.084       .  S
C809        C810   1.418       .  A
C809        N814   1.437       .  S
C810        C811   1.410       .  A
C811        C812   1.410       .  A
C811        H815   1.082       .  S
C812        N816   1.438       .  S
N814        H817   1.046       .  S
N814        H818   1.046       .  S
N816        H819   1.046       .  S
N816        H820   1.045       .  S
