geometry optimzed in LAMMPS
_audit_creation_date              2020-12-01 
_audit_creation_method            'lammps2cif' 
_symmetry_space_group_name_H-M    'P1' 
_symmetry_Int_Tables_number       1 
_symmetry_cell_setting            triclinic 
loop_ 
_symmetry_equiv_pos_as_xyz 
  x,y,z 
_cell_length_a                    37.95277973 
_cell_length_b                    40.941620281304004 
_cell_length_c                    23.01750067969191 
_cell_angle_alpha                 89.77567975820077 
_cell_angle_beta                  90.17482277650953 
_cell_angle_gamma                 89.40142947568397 
loop_ 
_atom_site_label 
_atom_site_type_symbol 
_atom_site_fract_x 
_atom_site_fract_y 
_atom_site_fract_z 
_atom_site_charge 
O1          O  0.21972367  0.20569465  0.45759813    -0.71000
O2          O  0.26654894  0.29237102  0.43270203    -0.71900
O3          O  0.28973605  0.22548464  0.43844118    -0.60600
O4          O  0.19570416  0.27201849  0.45258806    -0.69000
O5          O  0.20465840  0.26581086  0.04894222    -0.68500
O6          O  0.30651684  0.23930786  0.05240400    -0.59800
O7          O  0.26988096  0.29805902  0.02943492    -0.72300
O8          O  0.24133585  0.20678138  0.07031920    -0.71100
Cu9        Cu  0.24262631  0.24877319  0.44198568     1.04600
Cu10       Cu  0.25571664  0.25293021  0.05352850     1.04300
C11         C  0.21668763  0.19399008  0.50889091     0.95200
C12         C  0.27401391  0.30625293  0.97619252     0.94400
C13         C  0.32119610  0.22794176  0.00689297     0.86500
C14         C  0.18550819  0.28213351  0.50238898     0.92800
C15         C  0.19873833  0.10226219  0.48315336     0.88500
C16         C  0.21394888  0.08221289  0.43298269    -0.51800
C17         C  0.20907018  0.04930894  0.43793867     0.11400
C18         C  0.18871423  0.03962010  0.49303300     0.22300
C19         C  0.15959941  0.09285902  0.48525089    -0.52500
C20         C  0.15443509  0.05992178  0.49048190     0.11500
C21         C  0.21646018  0.08089436  0.05533097    -0.52000
C22         C  0.21192936  0.04782044  0.05249802     0.12100
H23         H  0.22643835  0.09360486  0.39587910     0.16600
H24         H  0.18424374  0.01292020  0.49702312     0.02300
H25         H  0.13809063  0.11052519  0.48312211     0.16900
H26         H  0.22991043  0.09242706  0.09097038     0.16700
C27         C  0.24232047  0.47236458  0.19435205     0.04300
C28         C  0.25210080  0.01304464  0.19342512     0.04200
C29         C  0.24932429  0.02951301  0.24636406    -0.16300
C30         C  0.25004367  0.01273430  0.29940634     0.04300
C31         C  0.24315594  0.47699386  0.30025076     0.04200
C32         C  0.24715901  0.45847630  0.24950224    -0.16300
H33         H  0.25568372  0.43315402  0.25290079     0.06300
H34         H  0.24488248  0.05575228  0.24618163     0.06300
C35         C  0.29708414  0.39980005  0.50389192     0.88500
C36         C  0.27895291  0.41572972  0.45089586    -0.51800
C37         C  0.28453373  0.44869608  0.44594398     0.11400
C38         C  0.30711926  0.46252839  0.49542531     0.22300
C39         C  0.33613007  0.40905691  0.49903067    -0.52500
C40         C  0.34125315  0.44203106  0.49451991     0.11500
C41         C  0.28207101  0.41143383  0.04748725    -0.52000
C42         C  0.28470288  0.44456708  0.05024305     0.12100
H43         H  0.26426844  0.40160309  0.41953966     0.16600
H44         H  0.31160393  0.48925267  0.49200777     0.02300
H45         H  0.35756371  0.39128415  0.49851792     0.16900
H46         H  0.26873252  0.39665553  0.07959392     0.16700
C47         C  0.05072824  0.35996404  0.49861173     0.88500
C48         C  0.04539270  0.33419169  0.04436621    -0.51800
C49         C  0.05257819  0.30144450  0.04075898     0.11400
C50         C  0.05515277  0.29699008  0.48396081     0.22300
C51         C  0.08858712  0.34749973  0.48939085    -0.52500
C52         C  0.09088589  0.31438702  0.48184809     0.11500
C53         C  0.02945112  0.34758970  0.44640994    -0.52000
C54         C  0.03233093  0.31476780  0.43794168     0.12100
H55         H  0.03283970  0.34548898  0.08160858     0.16600
H56         H  0.05708660  0.27011711  0.47796806     0.02300
H57         H  0.11138127  0.36331469  0.48904956     0.16900
H58         H  0.01430638  0.36348310  0.41759337     0.16700
C59         C  0.02730523  0.26705041  0.19336275     0.04300
C60         C  0.49461673  0.22392544  0.20163828     0.04200
C61         C  0.48792209  0.20595128  0.25243954    -0.16300
C62         C  0.49489807  0.21858288  0.30786930     0.04300
C63         C  0.02118404  0.26499141  0.29943835     0.04200
C64         C  0.03733699  0.27723514  0.24927253    -0.16300
H65         H  0.05751582  0.29563309  0.25389445     0.06300
H66         H  0.47664422  0.18179626  0.24876083     0.06300
C67         C  0.44415536  0.14307011  0.51425205     0.88500
C68         C  0.46663480  0.16187477  0.05211387    -0.51800
C69         C  0.45914473  0.19460257  0.05245662     0.11400
C70         C  0.43816503  0.20653986  0.50929074     0.22300
C71         C  0.40575600  0.15552114  0.51415957    -0.52500
C72         C  0.40270493  0.18884506  0.51215433     0.11500
C73         C  0.46045321  0.15823829  0.45999241    -0.52000
C74         C  0.45714304  0.19143726  0.45654504     0.12100
H75         H  0.47742938  0.14865998  0.08907137     0.16600
H76         H  0.43542972  0.23357412  0.50714754     0.02300
H77         H  0.38316716  0.13953417  0.51699459     0.16900
H78         H  0.47301607  0.14325453  0.42719809     0.16700
O79         O  0.04484157  0.02466329  0.40662443    -0.71000
O80         O  0.44643028  0.47911762  0.46672252    -0.71900
O81         O  0.47834490  0.04435144  0.48409906    -0.60600
O82         O  0.02129189  0.46732713  0.43377137    -0.69000
O83         O  0.03058587  0.45764835  0.00335446    -0.68500
O84         O  0.48916858  0.04336830  0.00454109    -0.59800
O85         O  0.45669162  0.47220661  0.07146812    -0.72300
O86         O  0.04288949  0.02490566  0.08357974    -0.71100
Cu87       Cu  0.99817879  0.00146032  0.40452968     1.04600
Cu88       Cu  0.99401497  0.00549163  0.07890515     1.04300
C89         C  0.06096455  0.03052027  0.45422928     0.95200
C90         C  0.43697091  0.46840593  0.51647756     0.94400
C91         C  0.47788892  0.05428166  0.53671794     0.86500
C92         C  0.03428734  0.45138079  0.47660516     0.92800
C93         C  0.46517495  0.08747803  0.55063833    -0.14400
C94         C  0.44785770  0.10613262  0.51143510    -0.29600
H95         H  0.45942505  0.09877220  0.90886908     0.14600
H96         H  0.43873286  0.09480700  0.47154703     0.15200
C97         C  0.46920783  0.21137359  0.40643429    -0.14400
C98         C  0.48483830  0.19858561  0.35892101    -0.29600
H99         H  0.46390202  0.23745032  0.40820900     0.14600
H100        H  0.48814763  0.17244056  0.35440123     0.15200
C101        C  0.46655483  0.21600637  0.10358532    -0.14400
C102        C  0.48936785  0.20667770  0.14585406    -0.29600
H103        H  0.45280652  0.23931066  0.10685792     0.14600
H104        H  0.50360190  0.18371561  0.14248931     0.15200
C105        C  0.04705341  0.39610017  0.50925994    -0.14400
C106        C  0.04901379  0.41851974  0.46679808    -0.29600
H107        H  0.03515358  0.39834882  0.03588119     0.14600
H108        H  0.05583057  0.41120429  0.42289307     0.15200
C109        C  0.03415448  0.27647315  0.35630816    -0.14400
C110        C  0.01640301  0.29904710  0.38665948    -0.29600
H111        H  0.06052106  0.26906094  0.36976090     0.14600
H112        H  0.99170059  0.30880571  0.36958571     0.15200
C113        C  0.04451724  0.27760469  0.08796011    -0.14400
C114        C  0.04040066  0.28711890  0.14364314    -0.29600
H115        H  0.04273342  0.25215305  0.07604712     0.14600
H116        H  0.04682029  0.31213655  0.15452061     0.15200
C117        C  0.37602613  0.45732418  0.48684600    -0.14400
C118        C  0.40326103  0.45107251  0.52265804    -0.29600
H119        H  0.37703285  0.47911673  0.96846260     0.14600
H120        H  0.40002070  0.43436751  0.55901248     0.15200
C121        C  0.27312196  0.46935989  0.39573596    -0.14400
C122        C  0.24970924  0.45942922  0.35577158    -0.29600
H123        H  0.28564569  0.49289907  0.39032890     0.14600
H124        H  0.23765271  0.43566682  0.35993575     0.15200
C125        C  0.25182311  0.45245080  0.14310394    -0.14400
C126        C  0.27119907  0.46455986  0.09904780    -0.29600
H127        H  0.24522260  0.42682467  0.14503047     0.14600
H128        H  0.27906983  0.48996363  0.09987625     0.15200
C129        C  0.11931161  0.04464041  0.49490693    -0.14400
C130        C  0.09521588  0.04749848  0.45226294    -0.29600
H131        H  0.11555437  0.02504491  0.96431823     0.14600
H132        H  0.10154407  0.06144398  0.41346675     0.15200
C133        C  0.24423148  0.03263456  0.35214391    -0.14400
C134        C  0.21981325  0.02551476  0.39247650    -0.29600
H135        H  0.25799108  0.05568643  0.35377574     0.14600
H136        H  0.20609296  0.00240448  0.39060804     0.13200
C137        C  0.22331901  0.02476016  0.09894484    -0.14400
C138        C  0.24675920  0.03285175  0.14031391    -0.29600
H139        H  0.21041777  0.00123580  0.10097104     0.14600
H140        H  0.25963202  0.05633736  0.13931743     0.15200
C141        C  0.20265248  0.16071840  0.51727690    -0.14400
C142        C  0.20573600  0.13836670  0.47487695    -0.29600
H143        H  0.22905451  0.14425256  0.08454371     0.14600
H144        H  0.21690830  0.14598093  0.43360106     0.15200
C145        C  0.12453903  0.29653220  0.47276615    -0.14400
C146        C  0.15208526  0.30055758  0.50865243    -0.29600
H147        H  0.12563769  0.27802067  0.43913450     0.14600
H148        H  0.13333495  0.26533492  0.03512607     0.15200
C149        C  0.34220636  0.20233190  0.47903340    -0.14400
C150        C  0.36875975  0.20676551  0.51678723    -0.29600
H151        H  0.37470548  0.22934550  0.04450131     0.14600
H152        H  0.36654146  0.22550621  0.54988560     0.15200
C153        C  0.29008691  0.36366131  0.51153671    -0.14400
C154        C  0.29137184  0.34178402  0.46814698    -0.29600
H155        H  0.30752369  0.34855527  0.04148553     0.14600
H156        H  0.29914350  0.34942015  0.42484303     0.15200
O157        O  0.23595482  0.19640981  0.97609941    -0.71000
O158        O  0.26873730  0.28585946  0.93550310    -0.71900
O159        O  0.30364457  0.22513868  0.95953465    -0.60600
O160        O  0.20221818  0.25712446  0.95380470    -0.69000
O161        O  0.20444672  0.27707096  0.54752104    -0.68500
O162        O  0.29789468  0.23059914  0.53348267    -0.59800
O163        O  0.27423572  0.29682926  0.52793371    -0.72300
O164        O  0.22714860  0.21023995  0.55288386    -0.71100
Cu165      Cu  0.25262433  0.24063397  0.95291265     1.04600
Cu166      Cu  0.25121517  0.25379913  0.54372584     1.04300
C167        C  0.23320081  0.18746777  0.02909618     0.95200
C168        C  0.27718210  0.30856519  0.47663138     0.94400
C169        C  0.30845887  0.22050316  0.48393296     0.86500
C170        C  0.18747514  0.26589884  0.00122074     0.92800
C171        C  0.19887285  0.09993457  0.00530573     0.88500
C172        C  0.21381948  0.08436886  0.95013494    -0.51800
C173        C  0.20938457  0.05137699  0.94663072     0.11400
C174        C  0.19023252  0.03694641  0.99949585     0.22300
C175        C  0.16007417  0.08961692  0.00689614    -0.52500
C176        C  0.15561775  0.05656784  0.00391664     0.11500
C177        C  0.21545832  0.08705213  0.53806474    -0.52000
C178        C  0.20984945  0.05416578  0.54374153     0.12100
H179        H  0.22580860  0.09895538  0.91628785     0.16600
H180        H  0.18633734  0.01011807  0.99704927     0.02300
H181        H  0.13816148  0.10685416  0.00872690     0.16900
H182        H  0.22956185  0.10148293  0.56971312     0.16700
C183        C  0.25127963  0.48672178  0.69435572     0.04300
C184        C  0.24759005  0.02461069  0.69223475     0.04200
C185        C  0.24485694  0.04071951  0.74589034    -0.16300
C186        C  0.24768540  0.02367138  0.79896365     0.04300
C187        C  0.25238220  0.48380904  0.80069931     0.04200
C188        C  0.25233395  0.46862689  0.74627374    -0.16300
H189        H  0.25504025  0.44223881  0.74420609     0.06300
H190        H  0.23872371  0.06665751  0.74636408     0.06300
C191        C  0.30126787  0.39597848  0.99619485     0.88500
C192        C  0.28587083  0.41353734  0.94206221    -0.51800
C193        C  0.28864694  0.44685485  0.94421516     0.11400
C194        C  0.30611452  0.45929676  0.99998941     0.22300
C195        C  0.33931148  0.40814709  0.00102211    -0.52500
C196        C  0.34172598  0.44139779  0.00239992     0.11500
C197        C  0.28346907  0.41930221  0.55585352    -0.52000
C198        C  0.28836552  0.45221880  0.55166873     0.12100
H199        H  0.27537097  0.40112633  0.90453637     0.16600
H200        H  0.30842778  0.48632235  0.00174576     0.02300
H201        H  0.36221961  0.39201953  0.00099626     0.16900
H202        H  0.27208722  0.40754321  0.59358357     0.16700
C203        C  0.05546173  0.35376557  0.99016486     0.88500
C204        C  0.03720477  0.34019594  0.55010849    -0.51800
C205        C  0.03894048  0.30715739  0.54271117     0.11400
C206        C  0.06892102  0.29146279  0.98215503     0.22300
C207        C  0.09453059  0.34581661  0.97987558    -0.52500
C208        C  0.10166846  0.31316904  0.97611247     0.11500
C209        C  0.03585496  0.33717437  0.94019830    -0.52000
C210        C  0.04317769  0.30447950  0.93507904     0.12100
H211        H  0.02797544  0.35170287  0.58969852     0.16600
H212        H  0.07479331  0.26490208  0.97862700     0.02300
H213        H  0.11479040  0.36429318  0.97698687     0.16900
H214        H  0.01884199  0.35083908  0.91084539     0.16700
C215        C  0.99966943  0.27333993  0.68420543     0.04300
C216        C  0.50554024  0.22846639  0.69875674     0.04200
C217        C  0.50589132  0.21268434  0.75304092    -0.16300
C218        C  0.50889905  0.23013276  0.80528884     0.04300
C219        C  0.00115184  0.27445808  0.79084880     0.04200
C220        C  0.00243643  0.29048943  0.73686582    -0.16300
H221        H  0.00764997  0.31649234  0.73572473     0.06300
H222        H  0.50141937  0.18656269  0.75485713     0.06300
C223        C  0.45791800  0.14458084  0.99523380     0.88500
C224        C  0.46195355  0.16090079  0.56532864    -0.51800
C225        C  0.45894623  0.19420609  0.56258696     0.11400
C226        C  0.44205042  0.20664275  0.99505943     0.22300
C227        C  0.41871410  0.15156118  0.98464686    -0.52500
C228        C  0.41012361  0.18401934  0.98517202     0.11500
C229        C  0.47712734  0.16400738  0.94838667    -0.52000
C230        C  0.46854495  0.19660256  0.94711303     0.12100
H231        H  0.47488658  0.14865133  0.60124205     0.16600
H232        H  0.43517761  0.23308310  0.99472309     0.02300
H233        H  0.39938593  0.13251721  0.97822916     0.16900
H234        H  0.49449372  0.15210570  0.91761883     0.16700
O235        O  0.04865475  0.02388339  0.98767371    -0.71000
O236        O  0.44556755  0.47920364  0.97742248    -0.71900
O237        O  0.49013446  0.04033793  0.90830809    -0.60600
O238        O  0.03330009  0.46013685  0.90709873    -0.69000
O239        O  0.03237436  0.46260445  0.52825588    -0.68500
O240        O  0.49028897  0.03637696  0.57758582    -0.59800
O241        O  0.45648227  0.47251970  0.56112919    -0.72300
O242        O  0.04743305  0.02220361  0.50286428    -0.71100
Cu243      Cu  0.99915542  0.00859237  0.97636161     1.04600
Cu244      Cu  0.99915445  0.00190803  0.50750317     1.04300
C245        C  0.06114328  0.03021005  0.03790836     0.95200
C246        C  0.43647686  0.46875384  0.02750415     0.94400
C247        C  0.48285841  0.05599743  0.95471013     0.86500
C248        C  0.03849717  0.44464652  0.95458022     0.92800
C249        C  0.46798202  0.08934736  0.95084118    -0.14400
C250        C  0.46800264  0.10888478  0.99757005    -0.29600
H251        H  0.47285581  0.09700595  0.59247059     0.14600
H252        H  0.47787747  0.09925716  0.03865267     0.15200
C253        C  0.47976953  0.21937321  0.90007223    -0.14400
C254        C  0.50407976  0.21129165  0.85976660    -0.29600
H255        H  0.46559599  0.24244813  0.89605054     0.14600
H256        H  0.51789561  0.18806466  0.86213316     0.15200
C257        C  0.47201499  0.21673813  0.60826252    -0.14400
C258        C  0.49709355  0.20822689  0.64723961    -0.29600
H259        H  0.45953559  0.24065886  0.61087401     0.14600
H260        H  0.50922226  0.18415755  0.64549687     0.15200
C261        C  0.04719480  0.38975566  0.99588889    -0.14400
C262        C  0.05211735  0.41086891  0.95198375    -0.29600
H263        H  0.03813182  0.40376431  0.55199641     0.14600
H264        H  0.06301125  0.40214606  0.91121004     0.15200
C265        C  0.00889737  0.29404391  0.84365622    -0.14400
C266        C  0.03103761  0.28364034  0.88609566    -0.29600
H267        H  0.99862732  0.31881054  0.84396495     0.14600
H268        H  0.04255474  0.25932644  0.88340663     0.15200
C269        C  0.02822458  0.28377363  0.58873672    -0.14400
C270        C  0.00489561  0.29233763  0.63021820    -0.29600
H271        H  0.04116919  0.26002034  0.59019342     0.14600
H272        H  0.99199154  0.31608621  0.62849467     0.15200
C273        C  0.37531169  0.45902230  0.99926906    -0.14400
C274        C  0.40263694  0.45195166  0.03427301    -0.29600
H275        H  0.37814792  0.47643568  0.45420631     0.14600
H276        H  0.39990801  0.43391092  0.06867428     0.15200
C277        C  0.27997490  0.46948789  0.89559839    -0.14400
C278        C  0.25747382  0.46231460  0.85237343    -0.29600
H279        H  0.29352911  0.49268543  0.89512932     0.14600
H280        H  0.24469635  0.43873164  0.85183968     0.15200
C281        C  0.25538683  0.46790068  0.64006559    -0.14400
C282        C  0.27921063  0.47533190  0.59896020    -0.29600
H283        H  0.24094298  0.44523496  0.63760308     0.14600
H284        H  0.29363791  0.49804336  0.60148580     0.15200
C285        C  0.12073795  0.04097490  0.00091758    -0.14400
C286        C  0.09655288  0.04462822  0.04298327    -0.29600
H287        H  0.11461174  0.02828872  0.53126598     0.14600
H288        H  0.10297813  0.05836201  0.08183607     0.15200
C289        C  0.24080905  0.04229206  0.85290296    -0.14400
C290        C  0.21977188  0.03128491  0.89569120    -0.29600
H291        H  0.25119533  0.06680841  0.85438552     0.14600
H292        H  0.20874177  0.00699523  0.89272966     0.13200
C293        C  0.22047285  0.03378382  0.59472862    -0.14400
C294        C  0.24104580  0.04424005  0.63858468    -0.29600
H295        H  0.20940133  0.00949275  0.59703198     0.14600
H296        H  0.25084216  0.06900317  0.63830752     0.15200
C297        C  0.22158427  0.15417395  0.04265273    -0.14400
C298        C  0.20388191  0.13654430  0.00312241    -0.29600
H299        H  0.19359692  0.15345211  0.56008614     0.14600
H300        H  0.19464921  0.14865518  0.96369078     0.15200
C301        C  0.13795935  0.30042465  0.96879223    -0.14400
C302        C  0.15015199  0.27583157  0.00195488    -0.29600
H303        H  0.15590703  0.31356211  0.94061692     0.14600
H304        H  0.14941933  0.31680597  0.54565603     0.15200
C305        C  0.35889875  0.21858903  0.01022490    -0.14400
C306        C  0.37324768  0.19541171  0.97651443    -0.29600
H307        H  0.34576954  0.18574834  0.44272302     0.14600
H308        H  0.35670929  0.18226160  0.94610820     0.15200
C309        C  0.29872849  0.35928680  0.00055356    -0.14400
C310        C  0.28349484  0.33993035  0.96117307    -0.29600
H311        H  0.28031244  0.35567449  0.55355545     0.14600
H312        H  0.27611643  0.34882475  0.91848474     0.15200
O313        O  0.22201319  0.70732583  0.46344086    -0.71000
O314        O  0.26815207  0.79419158  0.43779798    -0.71900
O315        O  0.29120523  0.72778515  0.44390152    -0.60600
O316        O  0.19732323  0.77341373  0.45739716    -0.69000
O317        O  0.18984092  0.77768712  0.03773693    -0.68500
O318        O  0.29042763  0.74731805  0.06091652    -0.59800
O319        O  0.25618800  0.80858306  0.04036532    -0.72300
O320        O  0.22280423  0.71675772  0.05940289    -0.71100
Cu321      Cu  0.24432165  0.75059685  0.44731258     1.04600
Cu322      Cu  0.23978008  0.76286971  0.05296357     1.04300
C323        C  0.21913862  0.69577543  0.51488076     0.95200
C324        C  0.26332836  0.81962130  0.98992952     0.94400
C325        C  0.30841053  0.73810933  0.01689558     0.86500
C326        C  0.18694208  0.78380586  0.50687627     0.92800
C327        C  0.20253682  0.60376600  0.48980902     0.88500
C328        C  0.21518513  0.58325782  0.43812473    -0.51800
C329        C  0.20792544  0.55067837  0.44260724     0.11400
C330        C  0.18896304  0.54185019  0.49949404     0.22300
C331        C  0.16297126  0.59644346  0.49470682    -0.52500
C332        C  0.15607602  0.56387499  0.50008607     0.11500
C333        C  0.22153350  0.59397694  0.04651160    -0.52000
C334        C  0.21706186  0.56150388  0.05600681     0.12100
H335        H  0.22774776  0.59430979  0.40084884     0.16600
H336        H  0.18283659  0.51544961  0.50359280     0.02300
H337        H  0.14252592  0.61519559  0.49518406     0.16900
H338        H  0.23486965  0.60957887  0.07749293     0.16700
C339        C  0.25788712  0.97888486  0.19327199     0.04300
C340        C  0.23018473  0.50482514  0.18932037     0.04200
C341        C  0.22699825  0.52386038  0.23980785    -0.16300
C342        C  0.23365519  0.51054155  0.29543252     0.04300
C343        C  0.25527137  0.97845985  0.29971059     0.04200
C344        C  0.25830283  0.96193945  0.24649183    -0.16300
H345        H  0.26296034  0.93575237  0.24663949     0.06300
H346        H  0.21812585  0.54903938  0.23598407     0.06300
C347        C  0.30265992  0.90062798  0.50783043     0.88500
C348        C  0.28521823  0.91620815  0.45391903    -0.51800
C349        C  0.29166998  0.94887987  0.44790636     0.11400
C350        C  0.31397848  0.96301816  0.49741443     0.22300
C351        C  0.34196341  0.90920068  0.50354823    -0.52500
C352        C  0.34774518  0.94203964  0.49809100     0.11500
C353        C  0.29382146  0.91792632  0.04257018    -0.52000
C354        C  0.29777775  0.95097695  0.04648165     0.12100
H355        H  0.27023819  0.90213968  0.42286614     0.16600
H356        H  0.31898029  0.98961947  0.49308791     0.02300
H357        H  0.36307051  0.89109202  0.50403363     0.16900
H358        H  0.28176630  0.90309155  0.07601534     0.16700
C359        C  0.04582224  0.85270928  0.49604700     0.88500
C360        C  0.01959742  0.83915731  0.03735076    -0.51800
C361        C  0.02858770  0.80673687  0.04222117     0.11400
C362        C  0.05600233  0.78984462  0.48912996     0.22300
C363        C  0.08489709  0.84273142  0.49105379    -0.52500
C364        C  0.09012610  0.80966119  0.48723878     0.11500
C365        C  0.02755300  0.83693576  0.44374151    -0.52000
C366        C  0.03324541  0.80399865  0.43947332     0.12100
H367        H  0.00218923  0.85192606  0.06698290     0.16600
H368        H  0.06051729  0.76303122  0.48624126     0.02300
H369        H  0.10625524  0.86015403  0.48963809     0.16900
H370        H  0.01277462  0.85120753  0.41209134     0.16700
C371        C  0.99128264  0.77465864  0.18761383     0.04300
C372        C  0.48607934  0.73145406  0.19914055     0.04200
C373        C  0.48494096  0.71591713  0.25337466    -0.16300
C374        C  0.48788265  0.73336848  0.30545186     0.04300
C375        C  0.99289296  0.77472850  0.29420608     0.04200
C376        C  0.99316142  0.79142038  0.24074360    -0.16300
H377        H  0.99695836  0.81764821  0.24040380     0.06300
H378        H  0.48026629  0.68981860  0.25517616     0.06300
C379        C  0.44674371  0.64757077  0.50027619     0.88500
C380        C  0.44928293  0.66165937  0.06427261    -0.51800
C381        C  0.44557193  0.69491958  0.05957814     0.11400
C382        C  0.43754470  0.71049752  0.50916620     0.22300
C383        C  0.40808603  0.65779655  0.50909227    -0.52500
C384        C  0.40347326  0.69087190  0.51385067     0.11500
C385        C  0.45848525  0.66675596  0.44688007    -0.52000
C386        C  0.45406171  0.69976322  0.45117220     0.12100
H387        H  0.46010827  0.65002825  0.10265062     0.16600
H388        H  0.43333711  0.73732296  0.51275571     0.02300
H389        H  0.38652318  0.64062557  0.51155754     0.16900
H390        H  0.46817677  0.65469866  0.40814609     0.16700
O391        O  0.03990604  0.53452066  0.43843785    -0.71000
O392        O  0.45302115  0.97956483  0.47337714    -0.71900
O393        O  0.46845065  0.54502915  0.47366939    -0.60600
O394        O  0.02322494  0.95791318  0.40816944    -0.69000
O395        O  0.01505743  0.96079309  0.07447171    -0.68500
O396        O  0.48271322  0.53736304  0.07863685    -0.59800
O397        O  0.46178814  0.97934044  0.00939003    -0.72300
O398        O  0.05674494  0.52285021  0.00528254    -0.71100
Cu399      Cu  0.99475342  0.50929336  0.44603522     1.04600
Cu400      Cu  0.00869133  0.50252055  0.00844961     1.04300
C401        C  0.05971917  0.53957951  0.48240125     0.95200
C402        C  0.44333358  0.96867735  0.52288893     0.94400
C403        C  0.46648762  0.55602757  0.52547025     0.86500
C404        C  0.02899592  0.94325001  0.45639451     0.92800
C405        C  0.45249255  0.58932450  0.53544272    -0.14400
C406        C  0.45311881  0.61139987  0.49214633    -0.29600
H407        H  0.46379076  0.59801189  0.09206645     0.14600
H408        H  0.46182464  0.60342192  0.44948167     0.15200
C409        C  0.46174513  0.72254123  0.40260469    -0.14400
C410        C  0.48399335  0.71421821  0.35951047    -0.29600
H411        H  0.44794373  0.74589501  0.40130481     0.14600
H412        H  0.49796667  0.69099956  0.36081938     0.15200
C413        C  0.45617201  0.71839348  0.10560333    -0.14400
C414        C  0.47977555  0.71069988  0.14744702    -0.29600
H415        H  0.44345676  0.74226927  0.10568243     0.14600
H416        H  0.49232494  0.68678300  0.14775280     0.15200
C417        C  0.03876939  0.88906455  0.50062588    -0.14400
C418        C  0.04342567  0.90961203  0.45565963    -0.29600
H419        H  0.01675437  0.90175780  0.94255813     0.14600
H420        H  0.05426744  0.90035707  0.41523007     0.15200
C421        C  0.99974982  0.79398529  0.34755483    -0.14400
C422        C  0.02226746  0.78370016  0.38936107    -0.29600
H423        H  0.98827944  0.81830221  0.34927427     0.14600
H424        H  0.03469549  0.75981082  0.38573160     0.15200
C425        C  0.01811979  0.78503249  0.09104867    -0.14400
C426        C  0.99588842  0.79414185  0.13369954    -0.29600
H427        H  0.03142810  0.76149362  0.09390188     0.14600
H428        H  0.98380375  0.81821666  0.13311361     0.15200
C429        C  0.38285380  0.95674222  0.49040679    -0.14400
C430        C  0.40904810  0.95217625  0.52901928    -0.29600
H431        H  0.39003872  0.98344309  0.02318892     0.14600
H432        H  0.40467711  0.93705371  0.56717769     0.15200
C433        C  0.28162245  0.96913167  0.39681971    -0.14400
C434        C  0.26038386  0.95906595  0.35368736    -0.29600
H435        H  0.29394567  0.99286122  0.39349686     0.14600
H436        H  0.24922764  0.93482033  0.35471612     0.15200
C437        C  0.26534372  0.95997050  0.13962815    -0.14400
C438        C  0.28705665  0.97080267  0.09756776    -0.29600
H439        H  0.25466919  0.93555980  0.13748736     0.14600
H440        H  0.29848652  0.99489179  0.10116914     0.15200
C441        C  0.12078673  0.55020982  0.50969073    -0.14400
C442        C  0.09326802  0.55690800  0.47477877    -0.29600
H443        H  0.12285428  0.52943908  0.03658532     0.14600
H444        H  0.09638153  0.57319635  0.43780513     0.15200
C445        C  0.23068475  0.53326534  0.34546270    -0.14400
C446        C  0.21421408  0.52619153  0.39573677    -0.29600
H447        H  0.24019510  0.55770544  0.33759807     0.14600
H448        H  0.20331065  0.50205076  0.40201853     0.13200
C449        C  0.22848117  0.54711702  0.11248668    -0.14400
C450        C  0.21838239  0.51784402  0.13194577    -0.29600
H451        H  0.24504961  0.56190853  0.14036591     0.14600
H452        H  0.20269009  0.50211786  0.10455522     0.15200
C453        C  0.20624692  0.66216704  0.52355227    -0.14400
C454        C  0.21090835  0.63957268  0.48195913    -0.29600
H455        H  0.19663068  0.65785161  0.06448394     0.14600
H456        H  0.22287688  0.64697883  0.44118278     0.15200
C457        C  0.12499506  0.79376170  0.47935767    -0.14400
C458        C  0.15294216  0.80135729  0.51228305    -0.29600
H459        H  0.12679821  0.77340923  0.44932864     0.14600
H460        H  0.12599545  0.77794762  0.93869080     0.15200
C461        C  0.34327235  0.70453648  0.48377422    -0.14400
C462        C  0.36908236  0.70690927  0.52322990    -0.29600
H463        H  0.35970707  0.73316435  0.06285287     0.14600
H464        H  0.36637682  0.72352037  0.55966285     0.15200
C465        C  0.29484697  0.86473820  0.51626543    -0.14400
C466        C  0.29466967  0.84287918  0.47281510    -0.29600
H467        H  0.32631823  0.84974817  0.98456672     0.14600
H468        H  0.30235754  0.85018235  0.42928877     0.15200
O469        O  0.22850210  0.70890669  0.96449283    -0.71000
O470        O  0.26144703  0.80134420  0.94513535    -0.71900
O471        O  0.29507957  0.73937813  0.96588861    -0.60600
O472        O  0.19501255  0.76909710  0.94290716    -0.69000
O473        O  0.20591735  0.77939950  0.55219808    -0.68500
O474        O  0.29924260  0.73257064  0.53908858    -0.59800
O475        O  0.27606806  0.79872241  0.53298435    -0.72300
O476        O  0.22881753  0.71249050  0.55877402    -0.71100
Cu477      Cu  0.24534109  0.75449417  0.95129451     1.04600
Cu478      Cu  0.25274397  0.75597762  0.54907992     1.04300
C479        C  0.21981441  0.69853192  0.01485759     0.95200
C480        C  0.27928590  0.81021744  0.48159085     0.94400
C481        C  0.30973902  0.72260043  0.48940737     0.86500
C482        C  0.17650717  0.77754301  0.98662370     0.92800
C483        C  0.20475082  0.60682966  0.99029733     0.88500
C484        C  0.22121057  0.58616722  0.94239290    -0.51800
C485        C  0.21742049  0.55325208  0.94961594     0.11400
C486        C  0.19733166  0.54419271  0.00580019     0.22300
C487        C  0.16603509  0.59605922  0.99221030    -0.52500
C488        C  0.16223004  0.56308324  0.00002479     0.11500
C489        C  0.21972249  0.58743417  0.54343666    -0.52000
C490        C  0.21217757  0.55489380  0.54895844     0.12100
H491        H  0.23259553  0.59728404  0.90409440     0.16600
H492        H  0.19392988  0.51749411  0.01142349     0.02300
H493        H  0.14384272  0.61279137  0.98713137     0.16900
H494        H  0.23511794  0.60094178  0.57478535     0.16700
C495        C  0.25488395  0.99065325  0.69211919     0.04300
C496        C  0.24793342  0.52118467  0.69647246     0.04200
C497        C  0.24803713  0.53641991  0.75104372    -0.16300
C498        C  0.24955971  0.51829346  0.80318511     0.04300
C499        C  0.25552265  0.98983528  0.79839283     0.04200
C500        C  0.25812495  0.97379176  0.74497657    -0.16300
H501        H  0.26403288  0.94779196  0.74448203     0.06300
H502        H  0.24544213  0.56280698  0.75306010     0.06300
C503        C  0.30947212  0.90287819  0.98734878     0.88500
C504        C  0.29247957  0.92181972  0.93695515    -0.51800
C505        C  0.29631741  0.95498880  0.94019878     0.11400
C506        C  0.31729130  0.96587359  0.99425523     0.22300
C507        C  0.34820955  0.91354335  0.98719663    -0.52500
C508        C  0.35233366  0.94667209  0.99098164     0.11500
C509        C  0.28897475  0.92093953  0.55878759    -0.52000
C510        C  0.29442915  0.95374674  0.55342525     0.12100
H511        H  0.27981383  0.90939536  0.90117372     0.16600
H512        H  0.32074832  0.99274093  0.99715774     0.02300
H513        H  0.37027952  0.89648988  0.98537937     0.16900
H514        H  0.27689301  0.90979964  0.59650706     0.16700
C515        C  0.03814484  0.85685590  0.98729653     0.88500
C516        C  0.03239834  0.83375243  0.54880717    -0.51800
C517        C  0.03753807  0.80067602  0.54552966     0.11400
C518        C  0.05457091  0.79511895  0.99507112     0.22300
C519        C  0.07750638  0.85044115  0.99736490    -0.52500
C520        C  0.08614481  0.81818611  0.00115177     0.11500
C521        C  0.02871745  0.83731063  0.93308971    -0.52000
C522        C  0.03676933  0.80471534  0.93720946     0.12100
H523        H  0.02107328  0.84598355  0.58613658     0.16600
H524        H  0.06184496  0.76881395  0.99844046     0.02300
H525        H  0.09682260  0.86970680  0.00142454     0.16900
H526        H  0.01710632  0.84867846  0.89484090     0.16700
C527        C  0.00270057  0.76557767  0.69027298     0.04300
C528        C  0.49968321  0.72133401  0.70519958     0.04200
C529        C  0.49282007  0.70329247  0.75580477    -0.16300
C530        C  0.49683751  0.71683416  0.81113637     0.04300
C531        C  0.00192386  0.76621752  0.79644752     0.04200
C532        C  0.00344324  0.78250898  0.74297817    -0.16300
H533        H  0.00654281  0.80883738  0.74243422     0.06300
H534        H  0.48284188  0.67864572  0.75198990     0.06300
C535        C  0.43560150  0.64282183  0.01103753     0.88500
C536        C  0.46692463  0.66283055  0.55117802    -0.51800
C537        C  0.46149686  0.69587380  0.55671829     0.11400
C538        C  0.42787077  0.70605005  0.00246520     0.22300
C539        C  0.39721076  0.65404354  0.00350687    -0.52500
C540        C  0.39301576  0.68711526  0.99975478     0.11500
C541        C  0.45492948  0.65781880  0.95948365    -0.52000
C542        C  0.45088460  0.69087280  0.95410613     0.12100
H543        H  0.48239506  0.64811048  0.58120898     0.16600
H544        H  0.42437572  0.73294907  0.99851700     0.02300
H545        H  0.37526712  0.63727897  0.00085665     0.16900
H546        H  0.47001951  0.64278070  0.92977469     0.16700
O547        O  0.05462464  0.52694233  0.90916801    -0.71000
O548        O  0.46538081  0.97468584  0.91352783    -0.71900
O549        O  0.46955600  0.54417751  0.98530022    -0.60600
O550        O  0.01611639  0.96187054  0.97799695    -0.69000
O551        O  0.02111202  0.95698374  0.50450869    -0.68500
O552        O  0.47825898  0.53918002  0.56826863    -0.59800
O553        O  0.46328473  0.97161276  0.56737766    -0.72300
O554        O  0.05108836  0.52921142  0.53277014    -0.71100
Cu555      Cu  0.00808657  0.50331675  0.90543504     1.04600
Cu556      Cu  0.00688443  0.50410839  0.54699742     1.04300
C557        C  0.07044229  0.53208342  0.95737786     0.95200
C558        C  0.44851365  0.97045565  0.96087500     0.94400
C559        C  0.46962316  0.55468137  0.03755206     0.86500
C560        C  0.02123950  0.94682740  0.02615260     0.92800
C561        C  0.45661680  0.58790463  0.05040437    -0.14400
C562        C  0.44005164  0.60602705  0.00967491    -0.29600
H563        H  0.44580650  0.59683508  0.57928567     0.14600
H564        H  0.43214400  0.59433596  0.96940806     0.15200
C565        C  0.46580311  0.71043463  0.90557471    -0.14400
C566        C  0.48500634  0.69739268  0.86185573    -0.29600
H567        H  0.45949370  0.73635623  0.90484277     0.14600
H568        H  0.48976316  0.67133495  0.85955024     0.15200
C569        C  0.47265372  0.71565307  0.60746055    -0.14400
C570        C  0.49398386  0.70410170  0.64960332    -0.29600
H571        H  0.46108894  0.73988551  0.61187410     0.14600
H572        H  0.50469861  0.67953644  0.64707843     0.15200
C573        C  0.02877889  0.89259528  0.98241121    -0.14400
C574        C  0.03365301  0.91279400  0.02729095    -0.29600
H575        H  0.02646433  0.89821850  0.54000327     0.14600
H576        H  0.04444805  0.90323871  0.06780016     0.15200
C577        C  0.00524037  0.78657910  0.84896424    -0.14400
C578        C  0.02960702  0.78080416  0.89040871    -0.29600
H579        H  0.98960946  0.80889531  0.84965559     0.14600
H580        H  0.04522087  0.75843487  0.88943507     0.15200
C581        C  0.02913811  0.77759862  0.59351921    -0.14400
C582        C  0.00687087  0.78550583  0.63683426    -0.29600
H583        H  0.04275168  0.75415108  0.59423751     0.14600
H584        H  0.99339595  0.80897737  0.63641869     0.15200
C585        C  0.38713853  0.96284300  0.99402280    -0.14400
C586        C  0.41387619  0.95430215  0.95888383    -0.29600
H587        H  0.38598145  0.97414038  0.45509652     0.14600
H588        H  0.40967213  0.93598194  0.92561497     0.15200
C589        C  0.28455106  0.97819970  0.89378548    -0.14400
C590        C  0.26199324  0.96970129  0.85119002    -0.29600
H591        H  0.29624489  0.00228466  0.89315306     0.14600
H592        H  0.25053428  0.94557978  0.85104554     0.15200
C593        C  0.25986023  0.97105958  0.63903762    -0.14400
C594        C  0.28442181  0.97779209  0.59883278    -0.29600
H595        H  0.24552261  0.94832093  0.63728602     0.14600
H596        H  0.29860345  0.00066591  0.60072707     0.15200
C597        C  0.12775981  0.54647402  0.00131145    -0.14400
C598        C  0.10445968  0.54942285  0.95741783    -0.29600
H599        H  0.11853978  0.53133073  0.54274680     0.14600
H600        H  0.11106431  0.56414475  0.91967531     0.15200
C601        C  0.24735936  0.53711259  0.85802219    -0.14400
C602        C  0.22573989  0.52954139  0.90250882    -0.29600
H603        H  0.26159217  0.55991347  0.85841041     0.14600
H604        H  0.21146931  0.50671200  0.90209016     0.13200
C605        C  0.22134147  0.53371309  0.59969237    -0.14400
C606        C  0.24259270  0.54229881  0.64399672    -0.29600
H607        H  0.20842940  0.51021883  0.60135275     0.14600
H608        H  0.25407555  0.56643300  0.64465632     0.15200
C609        C  0.20673940  0.66505915  0.02227651    -0.14400
C610        C  0.21052185  0.64278832  0.98010789    -0.29600
H611        H  0.19621106  0.65504314  0.56583957     0.14600
H612        H  0.22190263  0.65023889  0.93890842     0.15200
C613        C  0.12250883  0.80723938  0.01320016    -0.14400
C614        C  0.13930979  0.78672777  0.97740547    -0.29600
H615        H  0.13663926  0.81856551  0.04883910     0.14600
H616        H  0.15008658  0.81934752  0.54657988     0.15200
C617        C  0.34471231  0.72540949  0.02514292    -0.14400
C618        C  0.35803962  0.70238904  0.98978745    -0.29600
H619        H  0.34762674  0.69021294  0.44472547     0.14600
H620        H  0.34162130  0.69225999  0.95568735     0.15200
C621        C  0.30380642  0.86636808  0.98413973    -0.14400
C622        C  0.27093887  0.85448583  0.98371557    -0.29600
H623        H  0.28521595  0.85716432  0.55861665     0.14600
H624        H  0.24857106  0.87125371  0.98479573     0.15200
O625        O  0.72763631  0.20507091  0.47839732    -0.71000
O626        O  0.77204780  0.29259677  0.45132855    -0.71900
O627        O  0.79821964  0.22762129  0.46280730    -0.60600
O628        O  0.70129390  0.27016381  0.46717807    -0.69000
O629        O  0.69877824  0.27088260  0.05431939    -0.68500
O630        O  0.80158081  0.24530733  0.07102571    -0.59800
O631        O  0.76339089  0.30472566  0.05368743    -0.72300
O632        O  0.73580927  0.21115291  0.07368267    -0.71100
Cu633      Cu  0.74959379  0.24862008  0.46155487     1.04600
Cu634      Cu  0.74988956  0.25823431  0.06659679     1.04300
C635        C  0.72156634  0.19513269  0.53014306     0.95200
C636        C  0.76864088  0.31628863  0.00298456     0.94400
C637        C  0.81896177  0.23766766  0.02541951     0.86500
C638        C  0.68968307  0.28169232  0.51514709     0.92800
C639        C  0.70193740  0.10362369  0.50945358     0.88500
C640        C  0.71705913  0.08355969  0.45947569    -0.51800
C641        C  0.71505639  0.05051703  0.46677946     0.11400
C642        C  0.69801688  0.04059808  0.52521004     0.22300
C643        C  0.66391799  0.09128313  0.51614770    -0.52500
C644        C  0.66193224  0.05810576  0.52431458     0.11500
C645        C  0.72557505  0.08377665  0.05527134    -0.52000
C646        C  0.71442580  0.05211109  0.05939857     0.12100
H647        H  0.72636962  0.09509986  0.42003857     0.16600
H648        H  0.69601703  0.01377852  0.53089247     0.02300
H649        H  0.64087313  0.10719878  0.51451305     0.16900
H650        H  0.74129539  0.09586535  0.08794405     0.16700
C651        C  0.75839875  0.47667067  0.20466383     0.04300
C652        C  0.74299146  0.01794951  0.21065139     0.04200
C653        C  0.74231433  0.03369748  0.26480692    -0.16300
C654        C  0.74422166  0.01615611  0.31748028     0.04300
C655        C  0.75313571  0.47595948  0.31106182     0.04200
C656        C  0.75821507  0.45968764  0.25793268    -0.16300
H657        H  0.76400426  0.43368348  0.25831513     0.06300
H658        H  0.73942725  0.06007873  0.26600953     0.06300
C659        C  0.80478032  0.39994656  0.51879037     0.88500
C660        C  0.78451667  0.41491272  0.46682995    -0.51800
C661        C  0.78937848  0.44783338  0.46026892     0.11400
C662        C  0.81272370  0.46276351  0.50751343     0.22300
C663        C  0.84337525  0.41010240  0.51005107    -0.52500
C664        C  0.84731382  0.44318839  0.50384186     0.11500
C665        C  0.79701387  0.41565815  0.05499211    -0.52000
C666        C  0.80026875  0.44882850  0.05870761     0.12100
H667        H  0.76917135  0.40031171  0.43707399     0.16600
H668        H  0.81627477  0.48956833  0.50292138     0.02300
H669        H  0.86521326  0.39282930  0.50751235     0.16900
H670        H  0.78567018  0.40063740  0.08886285     0.16700
C671        C  0.55027519  0.35130407  0.50503455     0.88500
C672        C  0.52715333  0.32565745  0.06095180    -0.51800
C673        C  0.53840952  0.29381862  0.05974752     0.11400
C674        C  0.55765057  0.28854321  0.48904058     0.22300
C675        C  0.58878198  0.34025420  0.49801110    -0.52500
C676        C  0.59277890  0.30725765  0.48996764     0.11500
C677        C  0.53103999  0.33869645  0.45122457    -0.52000
C678        C  0.53525587  0.30610599  0.44146934     0.12100
H679        H  0.50887237  0.33536629  0.09269844     0.16600
H680        H  0.56121551  0.26185665  0.48298441     0.02300
H681        H  0.61080313  0.35694546  0.49977754     0.16900
H682        H  0.51604554  0.35450289  0.42204318     0.16700
C683        C  0.50898066  0.25555047  0.20656858     0.04300
C684        C  0.00147788  0.24244252  0.18850552     0.04200
C685        C  0.98390223  0.23159073  0.23861839    -0.16300
C686        C  0.99298667  0.24297150  0.29409327     0.04300
C687        C  0.51127680  0.24920365  0.31298367     0.04200
C688        C  0.51713783  0.26765495  0.26223593    -0.16300
H689        H  0.52960147  0.29127327  0.26577218     0.06300
H690        H  0.96379381  0.21309211  0.23458560     0.06300
C691        C  0.95234621  0.15092544  0.49172232     0.88500
C692        C  0.97044190  0.17578251  0.04657520    -0.51800
C693        C  0.96161751  0.20833243  0.04744759     0.11400
C694        C  0.94428776  0.21403235  0.48080811     0.22300
C695        C  0.91390765  0.16175570  0.48182617    -0.52500
C696        C  0.90958836  0.19487769  0.47643421     0.11500
C697        C  0.97335480  0.16571657  0.44149640    -0.52000
C698        C  0.96897707  0.19853818  0.43524142     0.12100
H699        H  0.98482819  0.16343610  0.08118854     0.16600
H700        H  0.94091495  0.24090602  0.47610047     0.02300
H701        H  0.89204315  0.14486738  0.48062163     0.16900
H702        H  0.99062608  0.15146476  0.41356517     0.16700
O703        O  0.54751672  0.02258494  0.45709685    -0.71000
O704        O  0.95018752  0.48389033  0.46090768    -0.71900
O705        O  0.97321109  0.04501657  0.40741133    -0.60600
O706        O  0.51717851  0.45958225  0.44227271    -0.69000
O707        O  0.52438575  0.44976267  0.04292222    -0.68500
O708        O  0.97325318  0.05038333  0.07797446    -0.59800
O709        O  0.96061646  0.48240495  0.00560903    -0.72300
O710        O  0.55904397  0.01876993  0.01218631    -0.71100
Cu711      Cu  0.49994578  0.00108161  0.46197905     1.04600
Cu712      Cu  0.51042020  0.99901264  0.01417078     1.04300
C713        C  0.56792716  0.02514494  0.50109059     0.95200
C714        C  0.94244759  0.47304467  0.51149327     0.94400
C715        C  0.96831226  0.06011741  0.45520343     0.86500
C716        C  0.52918290  0.44276671  0.48493751     0.92800
C717        C  0.95410818  0.09384000  0.45342006    -0.14400
C718        C  0.95821772  0.11446312  0.49820973    -0.29600
H719        H  0.94558127  0.10943938  0.07260110     0.14600
H720        H  0.96937294  0.10530110  0.53872632     0.15200
C721        C  0.98894734  0.21670277  0.39086588    -0.14400
C722        C  0.97289113  0.23056767  0.34488730    -0.29600
H723        H  0.01747360  0.21427224  0.39145169     0.14600
H724        H  0.94438382  0.22917088  0.34121199     0.15200
C725        C  0.96946558  0.23023667  0.09719618    -0.14400
C726        C  0.99589103  0.22382817  0.13462324    -0.29600
H727        H  0.95289258  0.25169731  0.10361146     0.14600
H728        H  0.01373587  0.20340283  0.12731306     0.15200
C729        C  0.54474724  0.38734522  0.51637925    -0.14400
C730        C  0.54447744  0.41009501  0.47413417    -0.29600
H731        H  0.51532233  0.38879078  0.05712142     0.14600
H732        H  0.55117310  0.40339966  0.42987677     0.15200
C733        C  0.52492492  0.26083130  0.37016004    -0.14400
C734        C  0.52118676  0.29205838  0.38659300    -0.29600
H735        H  0.53701097  0.24311648  0.39936214     0.14600
H736        H  0.50729590  0.30875342  0.35744159     0.15200
C737        C  0.52986420  0.26926037  0.10557978    -0.14400
C738        C  0.51517622  0.27786006  0.15672656    -0.29600
H739        H  0.53819670  0.24418110  0.09847189     0.14600
H740        H  0.51020694  0.30338951  0.16595055     0.15200
C741        C  0.88088897  0.45948104  0.49021235    -0.14400
C742        C  0.91039179  0.45367167  0.52070745    -0.29600
H743        H  0.89297045  0.48024030  0.03342909     0.14600
H744        H  0.91003876  0.43630633  0.55652706     0.15200
C745        C  0.77804907  0.46771911  0.40944979    -0.14400
C746        C  0.75831901  0.45664415  0.36522844    -0.29600
H747        H  0.78891885  0.49207647  0.40673009     0.14600
H748        H  0.74914488  0.43166705  0.36532674     0.15200
C749        C  0.76716597  0.45774355  0.15138699    -0.14400
C750        C  0.78890853  0.46877564  0.10950404    -0.29600
H751        H  0.75729553  0.43303086  0.14938077     0.14600
H752        H  0.79949547  0.49321761  0.11267687     0.15200
C753        C  0.62848035  0.04005787  0.53207177    -0.14400
C754        C  0.60137914  0.04323986  0.49462349    -0.29600
H755        H  0.60609581  0.06747766  0.03560713     0.14600
H756        H  0.60407577  0.05924733  0.45715711     0.15200
C757        C  0.74218158  0.03546392  0.37198086    -0.14400
C758        C  0.72274688  0.02711036  0.41880639    -0.29600
H759        H  0.75493241  0.05900509  0.37060724     0.14600
H760        H  0.70986902  0.00359318  0.42028424     0.13200
C761        C  0.72014108  0.03048426  0.11087649    -0.14400
C762        C  0.73960730  0.03875420  0.15764233    -0.29600
H763        H  0.70649170  0.00733507  0.11083057     0.14600
H764        H  0.75177929  0.06252330  0.15967965     0.15200
C765        C  0.70642666  0.16244951  0.54031943    -0.14400
C766        C  0.70590222  0.13992182  0.49796640    -0.29600
H767        H  0.70949863  0.15186030  0.07841415     0.14600
H768        H  0.71397093  0.14727102  0.45460597     0.15200
C769        C  0.62761758  0.29066311  0.48417951    -0.14400
C770        C  0.65520799  0.29876985  0.51780788    -0.29600
H771        H  0.62978094  0.26993910  0.45504809     0.14600
H772        H  0.63252721  0.26654593  0.96133652     0.15200
C773        C  0.84921461  0.20538209  0.51115464    -0.14400
C774        C  0.87449874  0.21108532  0.47165925    -0.29600
H775        H  0.87184968  0.23591267  0.06692981     0.14600
H776        H  0.87055937  0.22987071  0.43876901     0.15200
C777        C  0.79881228  0.36378838  0.52832233    -0.14400
C778        C  0.79756999  0.34188032  0.48509214    -0.29600
H779        H  0.83013757  0.34823124  0.99434549     0.14600
H780        H  0.80370501  0.34931584  0.44094930     0.15200
O781        O  0.74013438  0.20362340  0.97851528    -0.71000
O782        O  0.76651818  0.29812469  0.95804848    -0.71900
O783        O  0.80418596  0.23828438  0.97554187    -0.60600
O784        O  0.70239492  0.26225489  0.95929560    -0.69000
O785        O  0.70800538  0.27911311  0.56158886    -0.68500
O786        O  0.80125606  0.23146484  0.55884821    -0.59800
O787        O  0.77895981  0.29803028  0.54654777    -0.72300
O788        O  0.72989237  0.21270021  0.57370281    -0.71100
Cu789      Cu  0.75354686  0.25036763  0.96457123     1.04600
Cu790      Cu  0.75474582  0.25556140  0.56344187     1.04300
C791        C  0.73311463  0.19273260  0.02931083     0.95200
C792        C  0.78258808  0.30911030  0.49487349     0.94400
C793        C  0.81471578  0.22249604  0.51058398     0.86500
C794        C  0.68447755  0.27022761  0.00389550     0.92800
C795        C  0.71226820  0.10171132  0.00077757     0.88500
C796        C  0.72480299  0.08051734  0.95003632    -0.51800
C797        C  0.71437666  0.04866007  0.95280365     0.11400
C798        C  0.69199496  0.04126036  0.00690584     0.22300
C799        C  0.67198235  0.09795959  0.00186789    -0.52500
C800        C  0.66140061  0.06620470  0.00434678     0.11500
C801        C  0.72177700  0.09118800  0.56341245    -0.52000
C802        C  0.71923773  0.05845870  0.57302035     0.12100
H803        H  0.74034891  0.09062161  0.91510578     0.16600
H804        H  0.68313368  0.01551542  0.00963897     0.02300
H805        H  0.65360067  0.11843985  0.99968552     0.16900
H806        H  0.73582089  0.10715315  0.59288236     0.16700
C807        C  0.75621231  0.48807387  0.70540343     0.04300
C808        C  0.74090088  0.00122715  0.70345941     0.04200
C809        C  0.73728637  0.02031269  0.75385530    -0.16300
C810        C  0.74481503  0.00748986  0.80948250     0.04300
C811        C  0.75568672  0.48747876  0.81157510     0.04200
C812        C  0.75855208  0.47126941  0.75838357    -0.16300
H813        H  0.76417070  0.44521436  0.75821816     0.06300
H814        H  0.72711264  0.04507837  0.75013178     0.06300
C815        C  0.81188750  0.40089213  0.99884164     0.88500
C816        C  0.79352952  0.41962699  0.94944081    -0.51800
C817        C  0.79693256  0.45285685  0.95263527     0.11400
C818        C  0.81862594  0.46400825  0.00559597     0.22300
C819        C  0.85035944  0.41220264  0.99650540    -0.52500
C820        C  0.85384647  0.44535008  0.00016130     0.11500
C821        C  0.79232248  0.41965361  0.57122519    -0.52000
C822        C  0.79590553  0.45262019  0.56542828     0.12100
H823        H  0.78050399  0.40709054  0.91413058     0.16600
H824        H  0.82169193  0.49092703  0.00831709     0.02300
H825        H  0.87274659  0.39560354  0.99289772     0.16900
H826        H  0.78223321  0.40806830  0.61013834     0.16700
C827        C  0.54292220  0.34729202  0.01357432     0.88500
C828        C  0.53640683  0.33059093  0.55506711    -0.51800
C829        C  0.53998156  0.29762037  0.54759611     0.11400
C830        C  0.56370255  0.28656149  0.00890739     0.22300
C831        C  0.58284350  0.34282030  0.02022649    -0.52500
C832        C  0.59384477  0.31107836  0.01761165     0.11500
C833        C  0.53318058  0.33042608  0.95653183    -0.52000
C834        C  0.54403351  0.29839298  0.95357080     0.12100
H835        H  0.52644735  0.34174665  0.59441548     0.16600
H836        H  0.57268912  0.26067056  0.00730453     0.02300
H837        H  0.60074927  0.36293378  0.02754956     0.16900
H838        H  0.51922981  0.34325940  0.92210552     0.16700
C839        C  0.51083696  0.26256121  0.69642001     0.04300
C840        C  0.99366937  0.23934176  0.68543506     0.04200
C841        C  0.99158964  0.22348568  0.73945083    -0.16300
C842        C  0.99435657  0.24060869  0.79202678     0.04300
C843        C  0.51415788  0.26428566  0.80326376     0.04200
C844        C  0.51454368  0.27994626  0.74874921    -0.16300
H845        H  0.51843143  0.30614747  0.74694016     0.06300
H846        H  0.98676792  0.19741037  0.74063267     0.06300
C847        C  0.95624989  0.15754587  0.99356258     0.88500
C848        C  0.96411641  0.17013415  0.54525891    -0.51800
C849        C  0.96021995  0.20334411  0.53989072     0.11400
C850        C  0.93964837  0.21939647  0.99429048     0.22300
C851        C  0.91645253  0.16408663  0.99308473    -0.52500
C852        C  0.90772275  0.19645622  0.99410928     0.11500
C853        C  0.97010924  0.17626912  0.94132651    -0.52000
C854        C  0.96152546  0.20875751  0.94075464     0.12100
H855        H  0.97370242  0.15804254  0.58427997     0.16600
H856        H  0.93231419  0.24574012  0.99435603     0.02300
H857        H  0.89694106  0.14487903  0.99152510     0.16900
H858        H  0.98424058  0.16385582  0.90699996     0.16700
O859        O  0.56107840  0.01609411  0.91591550    -0.71000
O860        O  0.96162627  0.47971635  0.90932355    -0.71900
O861        O  0.98174657  0.05478282  0.98285066    -0.60600
O862        O  0.51462258  0.45731046  0.94860979    -0.69000
O863        O  0.52656962  0.45334309  0.53692543    -0.68500
O864        O  0.97705496  0.04680635  0.50357142    -0.59800
O865        O  0.96236104  0.47870680  0.55494694    -0.72300
O866        O  0.55900410  0.01313032  0.55025379    -0.71100
Cu867      Cu  0.51316223  0.99574493  0.91129565     1.04600
Cu868      Cu  0.51137721  0.99215468  0.56223808     1.04300
C869        C  0.57542752  0.02331597  0.96438899     0.95200
C870        C  0.94629723  0.47406017  0.95767235     0.94400
C871        C  0.97174907  0.06705165  0.03120463     0.86500
C872        C  0.52543101  0.43936937  0.99072552     0.92800
C873        C  0.95908613  0.10100228  0.03380874    -0.14400
C874        C  0.96636637  0.12200200  0.99099295    -0.29600
H875        H  0.94412596  0.10317633  0.41221794     0.14600
H876        H  0.98105430  0.11339145  0.95346429     0.15200
C877        C  0.96937840  0.23076092  0.89080800    -0.14400
C878        C  0.99019907  0.22147713  0.84616032    -0.29600
H879        H  0.95632600  0.25447147  0.88951360     0.14600
H880        H  0.00297195  0.19775740  0.84601866     0.15200
C881        C  0.96836794  0.22679311  0.58740435    -0.14400
C882        C  0.98936031  0.21878919  0.63282730    -0.29600
H883        H  0.95574831  0.25068529  0.58570061     0.14600
H884        H  0.00172491  0.19482607  0.63470033     0.15200
C885        C  0.53076527  0.38231263  0.01904237    -0.14400
C886        C  0.53792540  0.40576547  0.97998238    -0.29600
H887        H  0.53612456  0.39441081  0.55959196     0.14600
H888        H  0.55125875  0.39987560  0.93962077     0.15200
C889        C  0.51860504  0.28512447  0.85575566    -0.14400
C890        C  0.53842253  0.27663387  0.90241648    -0.29600
H891        H  0.50657748  0.30918762  0.85341996     0.14600
H892        H  0.55158212  0.25298178  0.90323216     0.15200
C893        C  0.53229984  0.27368894  0.59509176    -0.14400
C894        C  0.51232313  0.28178909  0.64159427    -0.29600
H895        H  0.54552871  0.25007516  0.59378228     0.14600
H896        H  0.49897821  0.30528308  0.64288038     0.15200
C897        C  0.88824215  0.46204981  0.00015530    -0.14400
C898        C  0.91207509  0.45720095  0.95791933    -0.29600
H899        H  0.88020325  0.47929955  0.45867689     0.14600
H900        H  0.90576213  0.44134954  0.92167007     0.15200
C901        C  0.78470611  0.47598460  0.90657723    -0.14400
C902        C  0.76187638  0.46746415  0.86451650    -0.29600
H903        H  0.79652599  0.50001353  0.90547601     0.14600
H904        H  0.75034991  0.44336195  0.86470574     0.15200
C905        C  0.76201836  0.46844331  0.65254580    -0.14400
C906        C  0.78580633  0.47613488  0.61158182    -0.29600
H907        H  0.74868014  0.44516483  0.65107417     0.14600
H908        H  0.79897748  0.49953612  0.61292186     0.15200
C909        C  0.62393484  0.05656249  0.00419901    -0.14400
C910        C  0.61189487  0.03546742  0.96452617    -0.29600
H911        H  0.62729262  0.02201358  0.56669795     0.14600
H912        H  0.62938373  0.02710641  0.93021142     0.15200
C913        C  0.74095202  0.03014084  0.85918544    -0.14400
C914        C  0.72189305  0.02368985  0.90717121    -0.29600
H915        H  0.75158201  0.05422492  0.85210606     0.14600
H916        H  0.70998388  0.99985015  0.91210267     0.13200
C917        C  0.73359758  0.04420924  0.62796428    -0.14400
C918        C  0.72750425  0.01367712  0.64643120    -0.29600
H919        H  0.74900983  0.06014487  0.65561387     0.14600
H920        H  0.71326349  0.99684370  0.61901084     0.15200
C921        C  0.72108661  0.15881126  0.03713203    -0.14400
C922        C  0.72461079  0.13656932  0.99482226    -0.29600
H923        H  0.69978182  0.15555755  0.58453312     0.14600
H924        H  0.73748205  0.14363451  0.95462831     0.15200
C925        C  0.63108431  0.30171017  0.02753270    -0.14400
C926        C  0.64687010  0.27832680  0.99626505    -0.29600
H927        H  0.64641330  0.31582537  0.05830454     0.14600
H928        H  0.65174579  0.31724245  0.55113973     0.15200
C929        C  0.85639732  0.22783569  0.02994999    -0.14400
C930        C  0.87078180  0.20768893  0.99050010    -0.29600
H931        H  0.85497592  0.18924004  0.54764173     0.14600
H932        H  0.85439747  0.19720703  0.95669986     0.15200
C933        C  0.80714818  0.36426325  0.99557997    -0.14400
C934        C  0.77472451  0.35144568  0.99692087    -0.29600
H935        H  0.79098404  0.35601087  0.57157704     0.14600
H936        H  0.75184857  0.36753261  0.99971669     0.15200
O937        O  0.71794074  0.70141373  0.46913763    -0.71000
O938        O  0.76000270  0.78851820  0.43465177    -0.71900
O939        O  0.78571921  0.72289683  0.44019706    -0.60600
O940        O  0.69196630  0.76642633  0.46430271    -0.69000
O941        O  0.70074177  0.76882708  0.07626287    -0.68500
O942        O  0.80045164  0.73621483  0.07009327    -0.59800
O943        O  0.76703367  0.79734095  0.05638449    -0.72300
O944        O  0.73398889  0.70585333  0.08873136    -0.71100
Cu945      Cu  0.73847391  0.74462345  0.44884479     1.04600
Cu946      Cu  0.75064235  0.75220017  0.07620589     1.04300
C947        C  0.71713933  0.69050821  0.52117448     0.95200
C948        C  0.76922371  0.80715333  0.00371464     0.94400
C949        C  0.81371212  0.72687039  0.02203797     0.86500
C950        C  0.68373511  0.77736804  0.51444362     0.92800
C951        C  0.69758166  0.59892071  0.49793529     0.88500
C952        C  0.71078428  0.57911319  0.44597943    -0.51800
C953        C  0.70637065  0.54615545  0.45109827     0.11400
C954        C  0.68828108  0.53622574  0.50823906     0.22300
C955        C  0.65871159  0.58939132  0.50429690    -0.52500
C956        C  0.65396451  0.55641934  0.50984579     0.11500
C957        C  0.71515356  0.57926717  0.06704563    -0.52000
C958        C  0.71155137  0.54605256  0.06420155     0.12100
H959        H  0.72174764  0.59072782  0.40778465     0.16600
H960        H  0.68408735  0.50949747  0.51253687     0.02300
H961        H  0.63713843  0.60701246  0.50527122     0.16900
H962        H  0.72857375  0.59106577  0.10251404     0.16700
C963        C  0.74679978  0.98355313  0.20931606     0.04300
C964        C  0.75132022  0.51067997  0.20464984     0.04200
C965        C  0.74616825  0.52682625  0.25743528    -0.16300
C966        C  0.74629533  0.51003960  0.31050001     0.04300
C967        C  0.74791800  0.98176073  0.31577236     0.04200
C968        C  0.74795588  0.96597798  0.26178401    -0.16300
H969        H  0.75130542  0.93963076  0.26051095     0.06300
H970        H  0.74066115  0.55290381  0.25703094     0.06300
C971        C  0.80551630  0.89359854  0.50120025     0.88500
C972        C  0.78712844  0.91232435  0.45123097    -0.51800
C973        C  0.79027265  0.94552927  0.45473041     0.11400
C974        C  0.81121841  0.95687681  0.50816393     0.22300
C975        C  0.84382152  0.90555585  0.50002868    -0.52500
C976        C  0.84669053  0.93877234  0.50357054     0.11500
C977        C  0.78097791  0.91647460  0.07012287    -0.52000
C978        C  0.78757220  0.94925442  0.06867707     0.12100
H979        H  0.77426278  0.90069567  0.41502901     0.16600
H980        H  0.81385100  0.98383789  0.51103834     0.02300
H981        H  0.86653003  0.88928643  0.49723008     0.16900
H982        H  0.76555652  0.90462196  0.10351682     0.16700
C983        C  0.54290444  0.84507454  0.51139856     0.88500
C984        C  0.53124091  0.83008532  0.05974990    -0.51800
C985        C  0.53179803  0.79686992  0.05328395     0.11400
C986        C  0.55348247  0.78246349  0.50203090     0.22300
C987        C  0.58189322  0.83548215  0.50452582    -0.52500
C988        C  0.58721290  0.80256230  0.49936559     0.11500
C989        C  0.52401920  0.82988808  0.45898337    -0.52000
C990        C  0.53010950  0.79699882  0.45328206     0.12100
H991        H  0.52089743  0.84247729  0.09768363     0.16600
H992        H  0.55836980  0.75575005  0.49802653     0.02300
H993        H  0.60314101  0.85302768  0.50302927     0.16900
H994        H  0.50893764  0.84443961  0.42810933     0.16700
C995        C  0.49209696  0.76544943  0.19685442     0.04300
C996        C  0.98733425  0.74033951  0.18829353     0.04200
C997        C  0.98641757  0.72382820  0.24158800    -0.16300
C998        C  0.98827177  0.74050690  0.29443632     0.04300
C999        C  0.49386577  0.76743777  0.30375772     0.04200
C1000       C  0.49499495  0.78304352  0.24921640    -0.16300
H1001       H  0.49989975  0.80908211  0.24740160     0.06300
H1002       H  0.98311585  0.69752017  0.24194794     0.06300
C1003       C  0.94760298  0.65286119  0.48797541     0.88500
C1004       C  0.96195336  0.66908523  0.05086904    -0.51800
C1005       C  0.95282904  0.70145957  0.04720499     0.11400
C1006       C  0.93692328  0.71549706  0.49628559     0.22300
C1007       C  0.90863658  0.66231079  0.49454436    -0.52500
C1008       C  0.90320775  0.69525359  0.49897961     0.11500
C1009       C  0.96009523  0.67222757  0.43515991    -0.52000
C1010       C  0.95481575  0.70516483  0.43924058     0.12100
H1011       H  0.97449339  0.65800784  0.08857792     0.16600
H1012       H  0.93206250  0.74224196  0.49971184     0.02300
H1013       H  0.88747572  0.64468255  0.49630435     0.16900
H1014       H  0.97089684  0.66032778  0.39708344     0.16700
O1015       O  0.53815084  0.52607086  0.44905311    -0.71000
O1016       O  0.95158886  0.97827438  0.40931819    -0.71900
O1017       O  0.96948796  0.55070504  0.46430195    -0.60600
O1018       O  0.52194582  0.95667146  0.44669921    -0.69000
O1019       O  0.53200548  0.95401697  0.01701648    -0.68500
O1020       O  0.98641015  0.54726970  0.00591673    -0.59800
O1021       O  0.94538520  0.98667625  0.06595776    -0.72300
O1022       O  0.55114819  0.51442475  0.04891958    -0.71100
Cu1023     Cu  0.49214898  0.50260658  0.45468641     1.04600
Cu1024     Cu  0.50420208  0.49321457  0.06375028     1.04300
C1025       C  0.55791582  0.53009707  0.49333582     0.95200
C1026       C  0.93651884  0.97270430  0.45788560     0.94400
C1027       C  0.96744169  0.56216034  0.51571089     0.86500
C1028       C  0.53182062  0.93819580  0.48872507     0.92800
C1029       C  0.95260724  0.59511044  0.52428301    -0.14400
C1030       C  0.95453338  0.61689163  0.48071686    -0.29600
H1031       H  0.94914760  0.60203200  0.91640908     0.14600
H1032       H  0.96460756  0.60885519  0.43889926     0.15200
C1033       C  0.96265059  0.72836825  0.39137123    -0.14400
C1034       C  0.98469882  0.72055823  0.34772800    -0.29600
H1035       H  0.94886378  0.75173435  0.39096198     0.14600
H1036       H  0.99847220  0.69723953  0.34778955     0.15200
C1037       C  0.95963837  0.72549357  0.09411236    -0.14400
C1038       C  0.98401885  0.71998996  0.13568095    -0.29600
H1039       H  0.94369872  0.74766289  0.09516463     0.14600
H1040       H  0.00003028  0.69791748  0.13489745     0.15200
C1041       C  0.53654730  0.88124812  0.51926490    -0.14400
C1042       C  0.54200338  0.90385742  0.47776722    -0.29600
H1043       H  0.53313366  0.89506582  0.05541562     0.14600
H1044       H  0.55078128  0.89657862  0.43481009     0.15200
C1045       C  0.50043601  0.78762963  0.35666300    -0.14400
C1046       C  0.52032165  0.77699659  0.40181754    -0.29600
H1047       H  0.49071008  0.81261100  0.35588699     0.14600
H1048       H  0.53185522  0.75267931  0.40020682     0.15200
C1049       C  0.51956903  0.77415208  0.09962252    -0.14400
C1050       C  0.49728822  0.78389095  0.14199060    -0.29600
H1051       H  0.53135546  0.74989975  0.10123317     0.14600
H1052       H  0.48565482  0.80817222  0.14042799     0.15200
C1053       C  0.88068502  0.95612032  0.50409674    -0.14400
C1054       C  0.90262186  0.95517249  0.45843805    -0.29600
H1055       H  0.89753780  0.93837897  0.07255860     0.14600
H1056       H  0.89511079  0.94164707  0.41986903     0.15200
C1057       C  0.77871063  0.96859095  0.40836469    -0.14400
C1058       C  0.75452964  0.96105552  0.36776550    -0.29600
H1059       H  0.79193055  0.99194079  0.40630247     0.14600
H1060       H  0.74176066  0.93749407  0.36884272     0.15200
C1061       C  0.75202749  0.96450288  0.15539752    -0.14400
C1062       C  0.77648506  0.97215572  0.11533715    -0.29600
H1063       H  0.73802552  0.94163865  0.15278560     0.14600
H1064       H  0.79071340  0.99492159  0.11906531     0.15200
C1065       C  0.61947343  0.54096662  0.51974925    -0.14400
C1066       C  0.59138855  0.54760313  0.48612101    -0.29600
H1067       H  0.62092397  0.51570758  0.05304811     0.14600
H1068       H  0.59380356  0.56463439  0.45004918     0.15200
C1069       C  0.73965362  0.53009807  0.36292276    -0.14400
C1070       C  0.71623162  0.52251694  0.40465444    -0.29600
H1071       H  0.75276758  0.55348072  0.36384409     0.14600
H1072       H  0.70324509  0.49902282  0.40394035     0.13200
C1073       C  0.72340384  0.52277968  0.11002308    -0.14400
C1074       C  0.74667642  0.53068505  0.15156206    -0.29600
H1075       H  0.71086491  0.49906472  0.11147226     0.14600
H1076       H  0.75900791  0.55444204  0.15131849     0.15200
C1077       C  0.70407774  0.65715694  0.53224070    -0.14400
C1078       C  0.70392817  0.63503507  0.48915337    -0.29600
H1079       H  0.72150455  0.64318207  0.09955050     0.14600
H1080       H  0.71199483  0.64282678  0.44602942     0.15200
C1081       C  0.62184168  0.78708335  0.48986394    -0.14400
C1082       C  0.64978352  0.79417274  0.52291017    -0.29600
H1083       H  0.62352982  0.76751710  0.45820270     0.14600
H1084       H  0.64284250  0.80348783  0.07008973     0.15200
C1085       C  0.84062792  0.70284832  0.47510823    -0.14400
C1086       C  0.86844130  0.71050534  0.50804897    -0.29600
H1087       H  0.86807056  0.72663504  0.05587961     0.14600
H1088       H  0.86643360  0.73014030  0.53953269     0.15200
C1089       C  0.80224430  0.85667471  0.50294978    -0.14400
C1090       C  0.78549378  0.83866109  0.46288823    -0.29600
H1091       H  0.79808714  0.85071890  0.07454894     0.14600
H1092       H  0.77797792  0.84882806  0.42119749     0.15200
O1093       O  0.72746662  0.69795340  0.99399857    -0.71000
O1094       O  0.76098763  0.78839269  0.96181077    -0.71900
O1095       O  0.79491404  0.72647529  0.97570943    -0.60600
O1096       O  0.69392779  0.76017735  0.98176600    -0.69000
O1097       O  0.70474136  0.77406938  0.55748293    -0.68500
O1098       O  0.79771736  0.72921832  0.53400027    -0.59800
O1099       O  0.77321749  0.79460054  0.52798807    -0.72300
O1100       O  0.72885765  0.70766974  0.56318960    -0.71100
Cu1101     Cu  0.74409767  0.74283875  0.97502994     1.04600
Cu1102     Cu  0.75155741  0.75156562  0.54901541     1.04300
C1103       C  0.72563895  0.68744034  0.04616899     0.95200
C1104       C  0.77299448  0.80544311  0.47580105     0.94400
C1105       C  0.80641872  0.71912217  0.48354210     0.86500
C1106       C  0.68192332  0.77060791  0.03028434     0.92800
C1107       C  0.69715564  0.59793930  0.01658532     0.88500
C1108       C  0.71283464  0.58260632  0.96170852    -0.51800
C1109       C  0.70923902  0.54946086  0.95851892     0.11400
C1110       C  0.69036717  0.53468496  0.01137930     0.22300
C1111       C  0.65863413  0.58656767  0.01729924    -0.52500
C1112       C  0.65522462  0.55334863  0.01535225     0.11500
C1113       C  0.71650927  0.58362633  0.55076676    -0.52000
C1114       C  0.71109286  0.55075109  0.55686298     0.12100
H1115       H  0.72453695  0.59733431  0.92776611     0.16600
H1116       H  0.68727255  0.50774644  0.00919396     0.02300
H1117       H  0.63627379  0.60315849  0.02141618     0.16900
H1118       H  0.73158074  0.59803313  0.58118612     0.16700
C1119       C  0.75439662  0.96911571  0.70873877     0.04300
C1120       C  0.74919912  0.52207467  0.70519277     0.04200
C1121       C  0.74626235  0.53837934  0.75860312    -0.16300
C1122       C  0.74847383  0.52145098  0.81181357     0.04300
C1123       C  0.75602032  0.97451750  0.81484162     0.04200
C1124       C  0.76039914  0.95581172  0.76424514    -0.16300
H1125       H  0.76969187  0.93074155  0.76805624     0.06300
H1126       H  0.74039292  0.56436960  0.75873334     0.06300
C1127       C  0.79999304  0.89672123  0.02335478     0.88500
C1128       C  0.78883141  0.91306333  0.96572373    -0.51800
C1129       C  0.79481171  0.94599339  0.96327927     0.11400
C1130       C  0.81242503  0.95925943  0.01885828     0.22300
C1131       C  0.83890955  0.90513517  0.03120146    -0.52500
C1132       C  0.84562449  0.93773474  0.02854900     0.11500
C1133       C  0.78966411  0.90827701  0.55653802    -0.52000
C1134       C  0.79268415  0.94137396  0.56069715     0.12100
H1135       H  0.77745900  0.89992532  0.92987187     0.16600
H1136       H  0.81785670  0.98586309  0.01744961     0.02300
H1137       H  0.85934848  0.88688946  0.03933346     0.16900
H1138       H  0.77772241  0.89313329  0.58963451     0.16700
C1139       C  0.54879265  0.84870554  0.01039619     0.88500
C1140       C  0.53042292  0.82536463  0.56412069    -0.51800
C1141       C  0.53629720  0.79244659  0.56007435     0.11400
C1142       C  0.55051566  0.78552127  0.99694145     0.22300
C1143       C  0.58627062  0.83437531  0.00728271    -0.52500
C1144       C  0.58724819  0.80116010  0.00032348     0.11500
C1145       C  0.53014275  0.83704450  0.95534438    -0.52000
C1146       C  0.53150141  0.80423786  0.94700444     0.12100
H1147       H  0.51932544  0.83718538  0.60197188     0.16600
H1148       H  0.55158283  0.75859165  0.99223263     0.02300
H1149       H  0.60981314  0.84915177  0.00999515     0.16900
H1150       H  0.51780584  0.85365654  0.92424414     0.16700
C1151       C  0.51108137  0.75412895  0.71011328     0.04300
C1152       C  0.99860378  0.73122416  0.69098125     0.04200
C1153       C  0.99747274  0.71484007  0.74471544    -0.16300
C1154       C  0.99817969  0.73193009  0.79754968     0.04300
C1155       C  0.51124583  0.74819017  0.81660892     0.04200
C1156       C  0.51712987  0.76689321  0.76606892    -0.16300
H1157       H  0.52769817  0.79127780  0.77010111     0.06300
H1158       H  0.99397639  0.68857308  0.74540485     0.06300
C1159       C  0.95218555  0.64917843  0.99718665     0.88500
C1160       C  0.96643794  0.66839588  0.54004530    -0.51800
C1161       C  0.96029558  0.70128352  0.54500800     0.11400
C1162       C  0.93375703  0.71050173  0.99013767     0.22300
C1163       C  0.91240839  0.65450569  0.98920477    -0.52500
C1164       C  0.90263293  0.68661496  0.98620707     0.11500
C1165       C  0.96920522  0.66729632  0.94632271    -0.52000
C1166       C  0.95933068  0.69947132  0.94175072     0.12100
H1167       H  0.98171834  0.65411516  0.57103957     0.16600
H1168       H  0.92571617  0.73663068  0.98713180     0.02300
H1169       H  0.89359935  0.63470958  0.98764407     0.16900
H1170       H  0.98655093  0.65490720  0.91611821     0.16700
O1171       O  0.53833742  0.52344668  0.95600916    -0.71000
O1172       O  0.94927089  0.99361847  0.97047631    -0.71900
O1173       O  0.98261796  0.54624930  0.90965671    -0.60600
O1174       O  0.53598051  0.95186785  0.92083945    -0.69000
O1175       O  0.53115654  0.94857434  0.54096163    -0.68500
O1176       O  0.98015497  0.54629327  0.55893876    -0.59800
O1177       O  0.95094026  0.98154298  0.50551789    -0.72300
O1178       O  0.54883923  0.51923266  0.54324401    -0.71100
Cu1179     Cu  0.49163475  0.50126396  0.96353388     1.04600
Cu1180     Cu  0.50288152  0.49586665  0.55573971     1.04300
C1181       C  0.55930095  0.52610558  0.99914190     0.95200
C1182       C  0.93172067  0.98513549  0.01508491     0.94400
C1183       C  0.97715155  0.56065375  0.95786128     0.86500
C1184       C  0.54077735  0.93886713  0.97071673     0.92800
C1185       C  0.96083691  0.59338767  0.95687633    -0.14400
C1186       C  0.96354340  0.61385190  0.00196792    -0.29600
H1187       H  0.94466372  0.60278450  0.56746837     0.14600
H1188       H  0.97636821  0.60552510  0.04171806     0.15200
C1189       C  0.96954036  0.72134385  0.89285164    -0.14400
C1190       C  0.99310422  0.71277734  0.85168033    -0.29600
H1191       H  0.95546434  0.74446231  0.88891030     0.14600
H1192       H  0.00646469  0.68931459  0.85366629     0.15200
C1193       C  0.97077611  0.72159842  0.59522946    -0.14400
C1194       C  0.99271951  0.71153206  0.63785407    -0.29600
H1195       H  0.95819349  0.74544302  0.59833609     0.14600
H1196       H  0.00406935  0.68713861  0.63703363     0.15200
C1197       C  0.54644229  0.88526259  0.01742906    -0.14400
C1198       C  0.55478738  0.90534189  0.97352091    -0.29600
H1199       H  0.52577423  0.88913509  0.56069024     0.14600
H1200       H  0.56668667  0.89530266  0.93448668     0.15200
C1201       C  0.52328612  0.75990699  0.87437334    -0.14400
C1202       C  0.51794387  0.79070799  0.89160251    -0.29600
H1203       H  0.53598485  0.74238542  0.90322057     0.14600
H1204       H  0.50400632  0.80738814  0.86248050     0.15200
C1205       C  0.53078730  0.76867429  0.60865140    -0.14400
C1206       C  0.51586158  0.77681548  0.65992400    -0.29600
H1207       H  0.54051115  0.74395884  0.60222998     0.14600
H1208       H  0.50787254  0.80184778  0.66781035     0.15200
C1209       C  0.88134504  0.95045234  0.03970857    -0.14400
C1210       C  0.89521520  0.97402309  0.00678653    -0.29600
H1211       H  0.88643267  0.97172941  0.54089030     0.14600
H1212       H  0.88030340  0.98368560  0.97005334     0.15200
C1213       C  0.78548252  0.96695988  0.91190275    -0.14400
C1214       C  0.76212807  0.95744313  0.87108735    -0.29600
H1215       H  0.79860671  0.99024671  0.90711728     0.14600
H1216       H  0.74881210  0.93431191  0.87568322     0.15200
C1217       C  0.76349652  0.94882544  0.65745028    -0.14400
C1218       C  0.78087885  0.96107943  0.61126155    -0.29600
H1219       H  0.75808469  0.92296648  0.66054388     0.14600
H1220       H  0.78783165  0.98672680  0.61085370     0.15200
C1221       C  0.62144974  0.53619710  0.02293976    -0.14400
C1222       C  0.59278675  0.54353884  0.99116345    -0.29600
H1223       H  0.61817494  0.52153378  0.55192265     0.14600
H1224       H  0.59433525  0.56193350  0.95712437     0.15200
C1225       C  0.74134818  0.54028309  0.86547508    -0.14400
C1226       C  0.72004513  0.52936296  0.90789987    -0.29600
H1227       H  0.75165621  0.56483983  0.86706111     0.14600
H1228       H  0.70905713  0.50506257  0.90488597     0.13200
C1229       C  0.72227647  0.53061874  0.60768869    -0.14400
C1230       C  0.74273342  0.54145318  0.65134483    -0.29600
H1231       H  0.71130012  0.50630268  0.61048246     0.14600
H1232       H  0.75229334  0.56629236  0.65084727     0.15200
C1233       C  0.71540666  0.65324846  0.05714283    -0.14400
C1234       C  0.70087337  0.63486389  0.01503254    -0.29600
H1235       H  0.69804047  0.64981987  0.57645910     0.14600
H1236       H  0.69274639  0.64675640  0.97477549     0.15200
C1237       C  0.62065336  0.78210275  0.99604023    -0.14400
C1238       C  0.64701414  0.78679965  0.03407736    -0.29600
H1239       H  0.62305353  0.76351741  0.96271929     0.14600
H1240       H  0.64714132  0.81138833  0.55849721     0.15200
C1241       C  0.85140035  0.71753876  0.02113333    -0.14400
C1242       C  0.86521811  0.69692031  0.98207366    -0.29600
H1243       H  0.84356419  0.68559552  0.43964073     0.14600
H1244       H  0.84828471  0.68512415  0.95052189     0.15200
C1245       C  0.79313184  0.86057867  0.03131877    -0.14400
C1246       C  0.78023093  0.84069216  0.99030540    -0.29600
H1247       H  0.81134391  0.84475253  0.54262325     0.14600
H1248       H  0.77674599  0.84879197  0.94590079     0.15200
loop_ 
_geom_bond_atom_site_label_1 
_geom_bond_atom_site_label_2 
_geom_bond_distance 
_geom_bond_site_symmetry_2 
_ccdc_geom_bond_type 
O1           Cu9   2.006       .  S
O1           C11   1.278       .  A
O2           Cu9   2.022       .  S
O2          C168   1.278       .  A
O3           Cu9   2.020       .  S
O3          C169   1.278       .  A
O4           Cu9   2.026       .  S
O4           C14   1.280       .  A
O5          Cu10   2.005       .  S
O5          C170   1.276       .  A
O6          Cu10   2.002       .  S
O6           C13   1.275       .  A
O7          Cu10   2.006       .  S
O7           C12   1.280   1_554  A
O8          Cu10   2.009       .  S
O8          C167   1.277       .  A
Cu9        Cu166   2.373       .  S
Cu10       Cu165   2.375   1_554  S
C11         O164   1.278       .  A
C11         C141   1.480       .  S
C12         O158   1.274       .  A
C12         C310   1.469       .  S
C13         O159   1.282   1_554  A
C13         C305   1.479       .  S
C14         O161   1.276       .  A
C14         C146   1.477       .  S
C15          C16   1.530       .  S
C15          C19   1.539       .  S
C15         C142   1.516       .  S
C15         C177   1.539       .  S
C16          H23   1.084       .  S
C16          C17   1.366       .  D
C17          C18   1.540       .  S
C17         C134   1.487       .  S
C18          C20   1.537       .  S
C18         C178   1.540       .  S
C18          H24   1.111       .  S
C19          H25   1.086       .  S
C19          C20   1.370       .  D
C20         C129   1.482       .  S
C21         C171   1.535       .  S
C21          H26   1.078       .  S
C21          C22   1.369       .  D
C22         C174   1.540   1_554  S
C22         C137   1.484       .  S
C27         C125   1.480       .  S
C27          C32   1.400       .  A
C27         C340   1.406       .  A
C28         C138   1.477       .  S
C28          C29   1.399       .  A
C28         C339   1.413   1_545  A
C29          C30   1.399       .  A
C29          H34   1.086       .  S
C30         C133   1.480       .  S
C30         C343   1.415   1_545  A
C31         C122   1.483       .  S
C31          C32   1.403       .  A
C31         C342   1.420       .  A
C32          H33   1.085       .  S
C35          C36   1.538       .  S
C35          C39   1.538       .  S
C35         C153   1.516       .  S
C35         C197   1.529       .  S
C36          H43   1.083       .  S
C36          C37   1.373       .  D
C37          C38   1.537       .  S
C37         C121   1.490       .  S
C38          C40   1.536       .  S
C38         C198   1.539       .  S
C38          H44   1.112       .  S
C39          H45   1.086       .  S
C39          C40   1.370       .  D
C40         C117   1.477       .  S
C41         C191   1.525   1_554  S
C41          H46   1.083       .  S
C41          C42   1.363       .  D
C42         C194   1.540   1_554  S
C42         C126   1.482       .  S
C47          C53   1.536       .  S
C47          C51   1.535       .  S
C47         C105   1.506       .  S
C47         C204   1.526       .  S
C48         C203   1.532   1_554  S
C48          H55   1.085       .  S
C48          C49   1.368       .  D
C49         C206   1.541   1_554  S
C49         C113   1.492       .  S
C50          C54   1.542       .  S
C50          C52   1.539       .  S
C50         C205   1.544       .  S
C50          H56   1.111       .  S
C51          H57   1.086       .  S
C51          C52   1.369       .  D
C52         C145   1.481       .  S
C53          H58   1.086       .  S
C53          C54   1.362       .  D
C54         C110   1.477       .  S
C59         C114   1.495       .  S
C59          C64   1.407       .  A
C59         C684   1.417       .  A
C60         C102   1.482       .  S
C60          C61   1.404       .  A
C60         C683   1.415       .  A
C61          C62   1.404       .  A
C61          H66   1.085       .  S
C62          C98   1.483       .  S
C62         C687   1.410       .  A
C63         C109   1.477       .  S
C63          C64   1.402       .  A
C63         C686   1.412   1_455  A
C64          H65   1.085       .  S
C67          C73   1.528       .  S
C67          C71   1.539       .  S
C67          C94   1.519       .  S
C67         C224   1.544       .  S
C68         C223   1.528   1_554  S
C68          H75   1.083       .  S
C68          C69   1.367       .  D
C69         C226   1.547   1_554  S
C69         C101   1.498       .  S
C70          C74   1.542       .  S
C70          C72   1.537       .  S
C70         C225   1.537       .  S
C70          H76   1.111       .  S
C71          H77   1.086       .  S
C71          C72   1.369       .  D
C72         C150   1.480       .  S
C73          H78   1.083       .  S
C73          C74   1.366       .  D
C74          C97   1.487       .  S
O79         Cu87   2.019   1_455  S
O79          C89   1.278       .  A
O80       Cu1023   2.012       .  S
O80          C90   1.279       .  A
O81        Cu711   2.012       .  S
O81          C91   1.279       .  A
O82        Cu399   2.004   1_455  S
O82          C92   1.275       .  A
O83        Cu400   2.012       .  S
O83         C248   1.280   1_554  A
O84        Cu712   1.991   1_545  S
O84         C247   1.277   1_554  A
O85       Cu1024   2.014       .  S
O85         C246   1.277       .  A
O86         Cu88   2.028   1_455  S
O86         C245   1.280       .  A
Cu87       O1016   2.019   1_545  S
Cu87        O705   2.012       .  S
Cu87        O394   2.013   1_645  S
Cu87       Cu244   2.371       .  S
Cu88        O395   1.992   1_645  S
Cu88        O708   1.992       .  S
Cu88       O1021   2.029   1_545  S
Cu88       Cu243   2.372   1_554  S
C89         O242   1.279       .  A
C89         C130   1.481       .  S
C90         O241   1.278       .  A
C90         C118   1.476       .  S
C91         O240   1.276       .  A
C91          C93   1.474       .  S
C92         O239   1.278       .  A
C92         C106   1.470       .  S
C93         H251   1.081       .  S
C93          C94   1.345       .  D
C94          H96   1.087       .  S
H95         C249   1.086       .  S
C97          H99   1.085       .  S
C97          C98   1.351       .  D
C98         H100   1.082       .  S
C101        H103   1.086       .  S
C101        C102   1.352       .  D
C102        H104   1.083       .  S
C105        H263   1.088       .  S
C105        C106   1.341       .  D
C106        H108   1.086       .  S
H107        C261   1.087   1_554  S
C109        H111   1.086       .  S
C109        C110   1.338       .  D
C110        H112   1.087   1_455  S
C113        H115   1.081       .  S
C113        C114   1.350       .  D
C114        H116   1.085       .  S
C117        H275   1.086       .  S
C117        C118   1.342       .  D
C118        H120   1.087       .  S
H119        C273   1.087       .  S
C121        H123   1.086       .  S
C121        C122   1.344       .  D
C122        H124   1.083       .  S
C125        H127   1.082       .  S
C125        C126   1.350       .  D
C126        H128   1.085       .  S
C129        H287   1.086       .  S
C129        C130   1.343       .  D
C130        H132   1.087       .  S
H131        C285   1.086   1_556  S
C133        H135   1.084       .  S
C133        C134   1.347       .  D
C134        H136   1.086       .  S
C137        H139   1.086       .  S
C137        C138   1.346       .  D
C138        H140   1.083       .  S
C141        H299   1.086       .  S
C141        C142   1.345       .  D
C142        H144   1.087       .  S
H143        C297   1.081       .  S
C145        H147   1.086       .  S
C145        C146   1.342       .  D
C146        H304   1.087       .  S
H148        C302   1.087       .  S
C149        C169   1.479       .  S
C149        H307   1.087       .  S
C149        C150   1.343       .  D
C150        H152   1.086       .  S
H151        C305   1.087       .  S
C153        H311   1.087       .  S
C153        C154   1.345       .  D
C154        C168   1.480       .  S
C154        H156   1.086       .  S
H155        C309   1.088       .  S
O157       Cu165   1.995       .  S
O157        C167   1.277   1_556  A
O158       Cu165   1.996       .  S
O159       Cu165   2.036       .  S
O160       Cu165   2.022       .  S
O160        C170   1.279   1_556  A
O161       Cu166   2.008       .  S
O162       Cu166   2.016       .  S
O162        C169   1.279       .  A
O163       Cu166   2.007       .  S
O163        C168   1.279       .  A
O164       Cu166   2.023       .  S
C167        C297   1.470       .  S
C170        C302   1.470       .  S
C171        C172   1.531   1_554  S
C171        C175   1.537       .  S
C171        C298   1.513       .  S
C172        H179   1.084       .  S
C172        C173   1.366       .  D
C173        C174   1.538       .  S
C173        C290   1.487       .  S
C174        C176   1.537   1_556  S
C174        H180   1.111       .  S
C175        H181   1.086       .  S
C175        C176   1.367       .  D
C176        C285   1.477       .  S
C177        H182   1.083       .  S
C177        C178   1.371       .  D
C178        C293   1.490       .  S
C183        C281   1.478       .  S
C183        C496   1.416       .  A
C183        C188   1.404       .  A
C184        C294   1.490       .  S
C184        C495   1.415   1_545  A
C184        C185   1.406       .  A
C185        C186   1.408       .  A
C185        H190   1.085       .  S
C186        C289   1.482       .  S
C186        C499   1.414   1_545  A
C187        C278   1.488       .  S
C187        C498   1.416       .  A
C187        C188   1.401       .  A
C188        H189   1.085       .  S
C191        C192   1.546       .  S
C191        C195   1.536   1_556  S
C191        C309   1.509   1_556  S
C192        H199   1.081       .  S
C192        C193   1.370       .  D
C193        C194   1.534       .  S
C193        C277   1.484       .  S
C194        C196   1.531   1_556  S
C194        H200   1.112   1_556  S
C195        H201   1.086       .  S
C195        C196   1.366       .  D
C196        C273   1.473   1_554  S
C197        H202   1.084       .  S
C197        C198   1.365       .  D
C198        C282   1.485       .  S
C203        C209   1.533       .  S
C203        C207   1.534       .  S
C203        C261   1.510       .  S
C204        H211   1.085       .  S
C204        C205   1.365       .  D
C205        C269   1.486       .  S
C206        C210   1.546       .  S
C206        C208   1.542       .  S
C206        H212   1.111       .  S
C207        H213   1.086       .  S
C207        C208   1.364       .  D
C208        C301   1.478       .  S
C209        H214   1.083       .  S
C209        C210   1.370       .  D
C210        C266   1.491       .  S
C215        C270   1.478   1_655  S
C215        C840   1.413       .  A
C215        C220   1.407   1_655  A
C216        C258   1.485       .  S
C216        C839   1.413       .  A
C216        C217   1.404       .  A
C217        C218   1.406       .  A
C217        H222   1.085       .  S
C218        C254   1.482       .  S
C218        C843   1.415       .  A
C219        C265   1.489       .  S
C219        C842   1.412   1_455  A
C219        C220   1.404       .  A
C220        H221   1.085       .  S
C223        C229   1.529       .  S
C223        C227   1.531       .  S
C223        C250   1.508       .  S
C224        H231   1.079       .  S
C224        C225   1.368       .  D
C225        C257   1.489       .  S
C226        C230   1.549       .  S
C226        C228   1.550       .  S
C226        H232   1.111       .  S
C227        H233   1.086       .  S
C227        C228   1.365       .  D
C228        C306   1.483       .  S
C229        H234   1.083       .  S
C229        C230   1.371       .  D
C230        C253   1.492       .  S
O235       Cu243   2.003   1_455  S
O235        C245   1.277   1_556  A
O236      Cu1179   2.002       .  S
O236        C246   1.278   1_556  A
O237       Cu867   2.017   1_545  S
O237        C247   1.277       .  A
O238       Cu555   2.002       .  S
O238        C248   1.275       .  A
O239       Cu556   1.996       .  S
O240       Cu868   2.005   1_545  S
O241      Cu1180   2.016       .  S
O242       Cu244   2.023   1_455  S
Cu243      O1172   2.000   1_545  S
Cu243       O861   2.003       .  S
Cu243       O550   2.012   1_645  S
Cu244       O551   2.013   1_645  S
Cu244       O864   2.014       .  S
Cu244      O1177   2.019   1_545  S
C245        C286   1.478       .  S
C246        C274   1.472       .  S
C247        C249   1.474       .  S
C248        C262   1.473       .  S
C249        C250   1.343       .  D
C250        H252   1.087   1_556  S
C253        H255   1.086       .  S
C253        C254   1.350       .  D
C254        H256   1.082       .  S
C257        H259   1.085       .  S
C257        C258   1.348       .  D
C258        H260   1.084       .  S
C261        C262   1.342       .  D
C262        H264   1.087       .  S
C265        H267   1.083   1_455  S
C265        C266   1.351       .  D
C266        H268   1.085       .  S
C269        H271   1.085       .  S
C269        C270   1.349       .  D
C270        H272   1.085   1_455  S
C273        C274   1.340   1_556  D
C274        H276   1.087       .  S
C277        H279   1.085       .  S
C277        C278   1.345       .  D
C278        H280   1.085       .  S
C281        H283   1.084       .  S
C281        C282   1.347       .  D
C282        H284   1.086       .  S
C285        C286   1.344       .  D
C286        H288   1.087       .  S
C289        H291   1.083       .  S
C289        C290   1.349       .  D
C290        H292   1.085       .  S
C293        H295   1.085       .  S
C293        C294   1.348       .  D
C294        H296   1.084       .  S
C297        C298   1.346       .  D
C298        H300   1.088   1_554  S
C301        H303   1.087       .  S
C301        C302   1.339   1_556  D
C305        C306   1.340   1_554  D
C306        H308   1.087       .  S
C309        C310   1.340   1_554  D
C310        H312   1.082       .  S
O313       Cu321   2.005       .  S
O313        C323   1.279       .  A
O314       Cu321   2.021       .  S
O314        C480   1.278       .  A
O315       Cu321   2.003       .  S
O315        C481   1.276       .  A
O316       Cu321   2.019       .  S
O316        C326   1.279       .  A
O317       Cu322   2.013       .  S
O317        C482   1.279   1_554  A
O318       Cu322   2.026       .  S
O318        C325   1.279       .  A
O319       Cu322   1.999       .  S
O319        C324   1.275   1_554  A
O320       Cu322   2.006       .  S
O320        C479   1.276       .  A
Cu321      Cu478   2.375       .  S
Cu322      Cu477   2.376   1_554  S
C323        O476   1.278       .  A
C323        C453   1.478       .  S
C324        O470   1.279       .  A
C324        C622   1.466       .  S
C325        O471   1.278   1_554  A
C325        C617   1.479       .  S
C326        O473   1.277       .  A
C326        C458   1.476       .  S
C327        C328   1.534       .  S
C327        C489   1.541       .  S
C327        C331   1.539       .  S
C327        C454   1.514       .  S
C328        H335   1.083       .  S
C328        C329   1.368       .  D
C329        C330   1.540       .  S
C329        C446   1.494       .  S
C330        C490   1.538       .  S
C330        C332   1.532       .  S
C330        H336   1.112       .  S
C331        H337   1.086       .  S
C331        C332   1.367       .  D
C332        C441   1.474       .  S
C333        C483   1.530   1_554  S
C333        H338   1.087       .  S
C333        C334   1.359       .  D
C334        C486   1.553       .  S
C334        C449   1.487       .  S
C339        C437   1.486       .  S
C339        C344   1.405       .  A
C340        C450   1.488       .  S
C340        C341   1.407       .  A
C341        C342   1.411       .  A
C341        H346   1.084       .  S
C342        C445   1.487       .  S
C343        C434   1.483       .  S
C343        C344   1.406       .  A
C344        H345   1.085       .  S
C347        C348   1.538       .  S
C347        C509   1.529       .  S
C347        C351   1.539       .  S
C347        C465   1.514       .  S
C348        H355   1.083       .  S
C348        C349   1.369       .  D
C349        C350   1.536       .  S
C349        C433   1.483       .  S
C350        C510   1.538       .  S
C350        C352   1.535       .  S
C350        H356   1.112       .  S
C351        H357   1.086       .  S
C351        C352   1.370       .  D
C352        C429   1.479       .  S
C353        C503   1.533   1_554  S
C353        H358   1.084       .  S
C353        C354   1.366       .  D
C354        C506   1.541   1_554  S
C354        C438   1.487       .  S
C359        C516   1.530       .  S
C359        C365   1.535       .  S
C359        C363   1.539       .  S
C359        C417   1.514       .  S
C360        C515   1.535   1_554  S
C360        H367   1.083       .  S
C360        C361   1.371       .  D
C361        C518   1.542   1_554  S
C361        C425   1.488       .  S
C362        C517   1.542       .  S
C362        C366   1.538       .  S
C362        C364   1.536       .  S
C362        H368   1.112       .  S
C363        H369   1.086       .  S
C363        C364   1.370       .  D
C364        C457   1.481       .  S
C365        H370   1.084       .  S
C365        C366   1.367       .  D
C366        C422   1.485       .  S
C371        C426   1.484       .  S
C371        C996   1.415       .  A
C371        C376   1.407       .  A
C372        C414   1.485       .  S
C372        C995   1.414       .  A
C372        C373   1.400       .  A
C373        C374   1.403       .  A
C373        H378   1.086       .  S
C374        C410   1.477       .  S
C374        C999   1.416       .  A
C375        C421   1.486       .  S
C375        C998   1.414       .  A
C375        C376   1.405       .  A
C376        H377   1.085       .  S
C379        C536   1.536       .  S
C379        C385   1.526       .  S
C379        C383   1.536       .  S
C379        C406   1.510       .  S
C380        C535   1.542       .  S
C380        H387   1.080       .  S
C380        C381   1.371       .  D
C381        C538   1.540       .  S
C381        C413   1.490       .  S
C382        C537   1.536       .  S
C382        C386   1.540       .  S
C382        C384   1.533       .  S
C382        H388   1.112       .  S
C383        H389   1.086       .  S
C383        C384   1.368       .  D
C384        C462   1.472       .  S
C385        H390   1.084       .  S
C385        C386   1.364       .  D
C386        C409   1.485       .  S
O391       Cu399   2.018   1_455  S
O391        C401   1.278       .  A
O392       Cu711   2.013   1_565  S
O392        C402   1.279       .  A
O393      Cu1023   1.998       .  S
O393        C403   1.278       .  A
O394        C404   1.277       .  A
O395        C560   1.274       .  A
O396      Cu1024   2.006       .  S
O396        C559   1.276       .  A
O397       Cu712   2.024       .  S
O397        C558   1.279   1_554  A
O398       Cu400   2.014       .  S
O398        C557   1.278   1_554  A
Cu399       O704   2.024       .  S
Cu399      O1017   1.986       .  S
Cu399      Cu556   2.376   1_655  S
Cu400      O1020   2.010   1_455  S
Cu400       O709   2.011   1_455  S
Cu400      Cu555   2.371   1_554  S
C401        O554   1.278       .  A
C401        C442   1.475       .  S
C402        O553   1.278       .  A
C402        C430   1.479       .  S
C403        O552   1.277       .  A
C403        C405   1.477       .  S
C404        O551   1.279       .  A
C404        C418   1.477       .  S
C405        H563   1.086       .  S
C405        C406   1.343       .  D
C406        H408   1.087       .  S
H407        C561   1.081       .  S
C409        H411   1.086       .  S
C409        C410   1.347       .  D
C410        H412   1.084       .  S
C413        H415   1.086       .  S
C413        C414   1.348       .  D
C414        H416   1.084       .  S
C417        H575   1.087       .  S
C417        C418   1.344       .  D
C418        H420   1.087       .  S
H419        C573   1.087       .  S
C421        H423   1.083       .  S
C421        C422   1.348   1_655  D
C422        H424   1.085       .  S
C425        H427   1.085       .  S
C425        C426   1.348   1_455  D
C426        H428   1.083       .  S
C429        H587   1.086       .  S
C429        C430   1.343       .  D
C430        H432   1.087       .  S
H431        C585   1.086   1_554  S
C433        H435   1.085       .  S
C433        C434   1.346       .  D
C434        H436   1.083       .  S
C437        H439   1.084       .  S
C437        C438   1.350       .  D
C438        H440   1.085       .  S
C441        H599   1.087       .  S
C441        C442   1.341       .  D
C442        H444   1.087       .  S
H443        C597   1.086       .  S
C445        H447   1.082       .  S
C445        C446   1.349       .  D
C446        H448   1.085       .  S
C449        H451   1.087       .  S
C449        C450   1.338       .  D
C450        H452   1.084       .  S
C453        H611   1.086       .  S
C453        C454   1.345       .  D
C454        H456   1.087       .  S
H455        C609   1.087       .  S
C457        H459   1.086       .  S
C457        C458   1.342       .  D
C458        H616   1.087       .  S
H460        C614   1.087       .  S
C461        C481   1.472       .  S
C461        H619   1.087       .  S
C461        C462   1.338       .  D
C462        H464   1.086       .  S
H463        C617   1.087       .  S
C465        H623   1.087       .  S
C465        C466   1.345       .  D
C466        C480   1.478       .  S
C466        H468   1.086       .  S
H467        C621   1.087       .  S
O469       Cu477   2.001       .  S
O469        C479   1.278   1_556  A
O470       Cu477   2.024       .  S
O471       Cu477   2.007       .  S
O472       Cu477   2.004       .  S
O472        C482   1.276       .  A
O473       Cu478   2.012       .  S
O474       Cu478   2.014       .  S
O474        C481   1.279       .  A
O475       Cu478   2.003       .  S
O475        C480   1.278       .  A
O476       Cu478   2.019       .  S
C479        C609   1.472       .  S
C482        C614   1.472       .  S
C483        C484   1.524       .  S
C483        C487   1.539       .  S
C483        C610   1.508       .  S
C484        H491   1.084       .  S
C484        C485   1.366       .  D
C485        C486   1.549   1_556  S
C485        C602   1.491       .  S
C486        C488   1.539       .  S
C486        H492   1.109       .  S
C487        H493   1.086       .  S
C487        C488   1.371   1_556  D
C488        C597   1.481       .  S
C489        H494   1.084       .  S
C489        C490   1.371       .  D
C490        C605   1.490       .  S
C495        C593   1.476       .  S
C495        C500   1.401       .  A
C496        C606   1.495       .  S
C496        C497   1.405       .  A
C497        C498   1.409       .  A
C497        H502   1.085       .  S
C498        C601   1.483       .  S
C499        C590   1.484       .  S
C499        C500   1.400       .  A
C500        H501   1.086       .  S
C503        C504   1.530       .  S
C503        C507   1.538       .  S
C503        C621   1.514       .  S
C504        H511   1.084       .  S
C504        C505   1.370       .  D
C505        C506   1.545       .  S
C505        C589   1.491       .  S
C506        C508   1.540       .  S
C506        H512   1.111       .  S
C507        H513   1.086       .  S
C507        C508   1.370       .  D
C508        C585   1.485       .  S
C509        H514   1.084       .  S
C509        C510   1.366       .  D
C510        C594   1.486       .  S
C515        C521   1.528       .  S
C515        C519   1.531       .  S
C515        C573   1.506       .  S
C516        H523   1.084       .  S
C516        C517   1.369       .  D
C517        C581   1.488       .  S
C518        C522   1.539       .  S
C518        C520   1.540   1_556  S
C518        H524   1.111       .  S
C519        H525   1.087   1_556  S
C519        C520   1.360   1_556  D
C520        C613   1.472       .  S
C521        H526   1.084       .  S
C521        C522   1.369       .  D
C522        C578   1.485       .  S
C527        C582   1.483       .  S
C527       C1152   1.417   1_455  A
C527        C532   1.400       .  A
C528        C570   1.480       .  S
C528       C1151   1.420       .  A
C528        C529   1.403       .  A
C529        C530   1.400       .  A
C529        H534   1.085       .  S
C530        C566   1.484       .  S
C530       C1155   1.407       .  A
C531        C577   1.477       .  S
C531       C1154   1.413   1_455  A
C531        C532   1.399       .  A
C532        H533   1.086       .  S
C535        C541   1.527   1_554  S
C535        C539   1.532       .  S
C535        C562   1.515       .  S
C536        H543   1.083       .  S
C536        C537   1.373       .  D
C537        C569   1.487       .  S
C538        C542   1.545   1_554  S
C538        C540   1.541   1_554  S
C538        H544   1.111   1_554  S
C539        H545   1.086       .  S
C539        C540   1.364   1_554  D
C540        C618   1.478       .  S
C541        H546   1.083       .  S
C541        C542   1.365       .  D
C542        C565   1.489       .  S
O547       Cu555   2.024       .  S
O547        C557   1.279       .  A
O548       Cu867   2.017       .  S
O548        C558   1.278       .  A
O549      Cu1179   2.005       .  S
O549        C559   1.279   1_556  A
O550        C560   1.279   1_556  A
O552      Cu1180   2.018       .  S
O553       Cu868   2.021       .  S
O554       Cu556   2.004       .  S
Cu555       O860   2.022   1_455  S
Cu555      O1173   2.000   1_455  S
Cu556      O1176   2.014   1_455  S
Cu556       O865   2.002   1_455  S
C557        C598   1.480       .  S
C558        C586   1.478       .  S
C559        C561   1.474       .  S
C560        C574   1.466       .  S
C561        C562   1.344       .  D
C562        H564   1.088   1_554  S
C565        H567   1.086       .  S
C565        C566   1.353       .  D
C566        H568   1.082       .  S
C569        H571   1.086       .  S
C569        C570   1.343       .  D
C570        H572   1.083       .  S
C573        C574   1.339   1_556  D
C574        H576   1.087       .  S
C577        H579   1.084   1_455  S
C577        C578   1.345       .  D
C578        H580   1.086       .  S
C581        H583   1.085       .  S
C581        C582   1.347       .  D
C582        H584   1.084   1_455  S
C585        C586   1.344       .  D
C586        H588   1.087       .  S
C589        H591   1.086   1_565  S
C589        C590   1.349       .  D
C590        H592   1.083       .  S
C593        H595   1.084       .  S
C593        C594   1.345       .  D
C594        H596   1.086   1_565  S
C597        C598   1.345   1_554  D
C598        H600   1.087       .  S
C601        H603   1.083       .  S
C601        C602   1.351       .  D
C602        H604   1.085       .  S
C605        H607   1.085       .  S
C605        C606   1.348       .  D
C606        H608   1.084       .  S
C609        C610   1.341   1_554  D
C610        H612   1.087       .  S
C613        H615   1.087       .  S
C613        C614   1.337   1_554  D
C617        C618   1.343   1_554  D
C618        H620   1.087       .  S
C621        C622   1.344       .  D
C622        H624   1.087       .  S
O625       Cu633   2.013       .  S
O625        C635   1.279       .  A
O626       Cu633   2.013       .  S
O626        C792   1.277       .  A
O627       Cu633   2.028       .  S
O627        C793   1.279       .  A
O628       Cu633   2.031       .  S
O628        C638   1.280       .  A
O629       Cu634   2.021       .  S
O629        C794   1.280       .  A
O630       Cu634   2.029       .  S
O630        C637   1.280       .  A
O631       Cu634   1.998       .  S
O631        C636   1.275       .  A
O632       Cu634   2.012       .  S
O632        C791   1.276       .  A
Cu633      Cu790   2.371       .  S
Cu634      Cu789   2.376   1_554  S
C635        O788   1.277       .  A
C635        C765   1.480       .  S
C636        O782   1.279   1_554  A
C636        C934   1.466   1_554  S
C637        O783   1.276   1_554  A
C637        C929   1.476       .  S
C638        O785   1.277       .  A
C638        C770   1.479       .  S
C639        C640   1.526       .  S
C639        C801   1.533       .  S
C639        C643   1.542       .  S
C639        C766   1.518       .  S
C640        H647   1.084       .  S
C640        C641   1.366       .  D
C641        C642   1.549       .  S
C641        C758   1.492       .  S
C642        C802   1.552       .  S
C642        C644   1.539       .  S
C642        H648   1.109       .  S
C643        H649   1.086       .  S
C643        C644   1.373       .  D
C644        C753   1.487       .  S
C645        C795   1.533       .  S
C645        H650   1.083       .  S
C645        C646   1.371       .  D
C646        C798   1.545       .  S
C646        C761   1.490       .  S
C651        C749   1.490       .  S
C651        C964   1.415       .  A
C651        C656   1.407       .  A
C652        C762   1.490       .  S
C652        C963   1.415   1_545  A
C652        C653   1.406       .  A
C653        C654   1.408       .  A
C653        H658   1.085       .  S
C654        C757   1.487       .  S
C654        C967   1.414   1_545  A
C655        C746   1.485       .  S
C655        C966   1.417       .  A
C655        C656   1.408       .  A
C656        H657   1.085       .  S
C659        C660   1.541       .  S
C659        C821   1.528       .  S
C659        C663   1.540       .  S
C659        C777   1.515       .  S
C660        H667   1.083       .  S
C660        C661   1.370       .  D
C661        C662   1.534       .  S
C661        C745   1.483       .  S
C662        C822   1.537       .  S
C662        C664   1.534       .  S
C662        H668   1.112       .  S
C663        H669   1.086       .  S
C663        C664   1.371       .  D
C664        C741   1.478       .  S
C665        C815   1.536   1_554  S
C665        H670   1.084       .  S
C665        C666   1.368       .  D
C666        C818   1.541       .  S
C666        C750   1.491       .  S
C671        C828   1.526       .  S
C671        C677   1.530       .  S
C671        C675   1.535       .  S
C671        C729   1.512       .  S
C672        C827   1.530       .  S
C672        H679   1.083       .  S
C672        C673   1.368       .  D
C673        C830   1.544       .  S
C673        C737   1.493       .  S
C674        C829   1.552       .  S
C674        C678   1.554       .  S
C674        C676   1.545       .  S
C674        H680   1.109       .  S
C675        H681   1.086       .  S
C675        C676   1.371       .  D
C676        C769   1.487       .  S
C677        H682   1.086       .  S
C677        C678   1.362       .  D
C678        C734   1.490       .  S
C683        C738   1.484       .  S
C683        C688   1.410       .  A
C684        C726   1.474   1_455  S
C684        C685   1.407   1_455  A
C685        C686   1.404       .  A
C685        H690   1.085       .  S
C686        C722   1.488       .  S
C687        C733   1.494       .  S
C687        C688   1.408       .  A
C688        H689   1.084       .  S
C691        C848   1.532       .  S
C691        C697   1.533       .  S
C691        C695   1.536       .  S
C691        C718   1.514       .  S
C692        C847   1.532   1_554  S
C692        H699   1.085       .  S
C692        C693   1.371       .  D
C693        C850   1.542   1_554  S
C693        C725   1.489       .  S
C694        C849   1.546       .  S
C694        C698   1.542       .  S
C694        C696   1.543       .  S
C694        H700   1.111       .  S
C695        H701   1.086       .  S
C695        C696   1.369       .  D
C696        C774   1.485       .  S
C697        H702   1.087       .  S
C697        C698   1.359       .  D
C698        C721   1.477       .  S
O703       Cu711   2.020       .  S
O703        C713   1.278       .  A
O704        C714   1.281       .  A
O705        C715   1.277       .  A
O706      Cu1023   2.014       .  S
O706        C716   1.277       .  A
O707      Cu1024   1.990       .  S
O707        C872   1.277   1_554  A
O708        C871   1.273       .  A
O709        C870   1.278   1_554  A
O710       Cu712   2.023   1_545  S
O710        C869   1.279   1_554  A
Cu711      O1018   2.025   1_545  S
Cu711      Cu868   2.373   1_545  S
Cu712      O1019   2.009       .  S
Cu712      Cu867   2.375   1_554  S
C713        O866   1.280       .  A
C713        C754   1.484       .  S
C714        O865   1.275       .  A
C714        C742   1.475       .  S
C715        O864   1.279       .  A
C715        C717   1.477       .  S
C716        O863   1.278       .  A
C716        C730   1.475       .  S
C717        H875   1.087       .  S
C717        C718   1.345       .  D
C718        H720   1.087       .  S
H719        C873   1.087       .  S
C721        H723   1.086   1_655  S
C721        C722   1.341       .  D
C722        H724   1.087       .  S
C725        H727   1.086       .  S
C725        C726   1.343       .  D
C726        H728   1.085   1_655  S
C729        H887   1.087       .  S
C729        C730   1.344       .  D
C730        H732   1.086       .  S
H731        C885   1.088       .  S
C733        H735   1.084       .  S
C733        C734   1.341       .  D
C734        H736   1.087       .  S
C737        H739   1.084       .  S
C737        C738   1.350       .  D
C738        H740   1.082       .  S
C741        H899   1.087       .  S
C741        C742   1.338       .  D
C742        H744   1.087       .  S
H743        C897   1.086       .  S
C745        H747   1.085       .  S
C745        C746   1.345       .  D
C746        H748   1.084       .  S
C749        H751   1.084       .  S
C749        C750   1.350       .  D
C750        H752   1.085       .  S
C753        H911   1.086       .  S
C753        C754   1.345       .  D
C754        H756   1.087       .  S
H755        C909   1.086       .  S
C757        H759   1.083       .  S
C757        C758   1.353       .  D
C758        H760   1.085       .  S
C761        H763   1.085       .  S
C761        C762   1.350       .  D
C762        H764   1.083       .  S
C765        H923   1.086       .  S
C765        C766   1.345       .  D
C766        H768   1.087       .  S
H767        C921   1.086       .  S
C769        H771   1.086       .  S
C769        C770   1.345       .  D
C770        H928   1.087       .  S
H772        C926   1.087       .  S
C773        C793   1.479       .  S
C773        H931   1.087       .  S
C773        C774   1.345       .  D
C774        H776   1.086       .  S
H775        C929   1.087       .  S
C777        H935   1.087       .  S
C777        C778   1.343       .  D
C778        C792   1.479       .  S
C778        H780   1.086       .  S
H779        C933   1.087       .  S
O781       Cu789   2.010       .  S
O781        C791   1.279   1_556  A
O782       Cu789   2.026       .  S
O783       Cu789   1.995       .  S
O784       Cu789   2.000       .  S
O784        C794   1.275   1_556  A
O785       Cu790   2.010       .  S
O786       Cu790   2.016       .  S
O786        C793   1.278       .  A
O787       Cu790   2.012       .  S
O787        C792   1.280       .  A
O788       Cu790   2.014       .  S
C791        C921   1.477       .  S
C794        C926   1.472   1_554  S
C795        C796   1.532   1_554  S
C795        C799   1.539       .  S
C795        C922   1.513   1_554  S
C796        H803   1.082       .  S
C796        C797   1.368       .  D
C797        C798   1.540   1_556  S
C797        C914   1.495       .  S
C798        C800   1.539       .  S
C798        H804   1.111       .  S
C799        H805   1.086   1_554  S
C799        C800   1.366       .  D
C800        C909   1.480       .  S
C801        H806   1.086       .  S
C801        C802   1.362       .  D
C802        C917   1.490       .  S
C807        C905   1.477       .  S
C807       C1120   1.415       .  A
C807        C812   1.400       .  A
C808        C918   1.492       .  S
C808       C1119   1.411   1_545  A
C808        C809   1.407       .  A
C809        C810   1.409       .  A
C809        H814   1.084       .  S
C810        C913   1.482       .  S
C810       C1123   1.416   1_545  A
C811        C902   1.483       .  S
C811       C1122   1.415       .  A
C811        C812   1.399       .  A
C812        H813   1.086       .  S
C815        C816   1.531       .  S
C815        C819   1.537       .  S
C815        C933   1.514       .  S
C816        H823   1.084       .  S
C816        C817   1.370       .  D
C817        C818   1.542   1_556  S
C817        C901   1.489       .  S
C818        C820   1.538       .  S
C818        H824   1.111       .  S
C819        H825   1.086       .  S
C819        C820   1.368   1_556  D
C820        C897   1.480       .  S
C821        H826   1.085       .  S
C821        C822   1.364       .  D
C822        C906   1.485       .  S
C827        C833   1.532   1_554  S
C827        C831   1.531       .  S
C827        C885   1.507       .  S
C828        H835   1.083       .  S
C828        C829   1.367       .  D
C829        C893   1.497       .  S
C830        C834   1.548   1_554  S
C830        C832   1.543       .  S
C830        H836   1.111       .  S
C831        H837   1.086       .  S
C831        C832   1.362       .  D
C832        C925   1.477       .  S
C833        H838   1.083       .  S
C833        C834   1.373       .  D
C834        C890   1.495       .  S
C839        C894   1.486       .  S
C839        C844   1.409       .  A
C840        C882   1.487       .  S
C840        C841   1.403       .  A
C841        C842   1.405       .  A
C841        H846   1.085       .  S
C842        C878   1.479       .  S
C843        C889   1.492       .  S
C843        C844   1.407       .  A
C844        H845   1.085       .  S
C847        C853   1.522       .  S
C847        C851   1.531       .  S
C847        C874   1.503       .  S
C848        H855   1.084       .  S
C848        C849   1.371       .  D
C849        C881   1.492       .  S
C850        C854   1.549       .  S
C850        C852   1.541       .  S
C850        H856   1.111       .  S
C851        H857   1.086       .  S
C851        C852   1.363       .  D
C852        C930   1.473       .  S
C853        H858   1.082       .  S
C853        C854   1.366       .  D
C854        C877   1.491       .  S
O859       Cu867   2.011   1_545  S
O859        C869   1.277       .  A
O860        C870   1.279       .  A
O861        C871   1.280   1_556  A
O862      Cu1179   2.023       .  S
O862        C872   1.278       .  A
O863      Cu1180   2.001       .  S
O866       Cu868   2.028   1_545  S
Cu867      O1174   1.997       .  S
Cu868      O1175   1.992       .  S
C869        C910   1.476       .  S
C870        C898   1.477       .  S
C871        C873   1.467       .  S
C872        C886   1.473       .  S
C873        C874   1.337   1_554  D
C874        H876   1.087       .  S
C877        H879   1.085       .  S
C877        C878   1.352       .  D
C878        H880   1.081   1_655  S
C881        H883   1.085       .  S
C881        C882   1.350       .  D
C882        H884   1.084   1_655  S
C885        C886   1.343   1_554  D
C886        H888   1.086       .  S
C889        H891   1.083       .  S
C889        C890   1.352       .  D
C890        H892   1.085       .  S
C893        H895   1.085       .  S
C893        C894   1.354       .  D
C894        H896   1.083       .  S
C897        C898   1.344   1_554  D
C898        H900   1.087       .  S
C901        H903   1.086       .  S
C901        C902   1.347       .  D
C902        H904   1.084       .  S
C905        H907   1.084       .  S
C905        C906   1.346       .  D
C906        H908   1.086       .  S
C909        C910   1.342   1_554  D
C910        H912   1.087       .  S
C913        H915   1.081       .  S
C913        C914   1.349       .  D
C914        H916   1.086   1_545  S
C917        H919   1.087       .  S
C917        C918   1.341       .  D
C918        H920   1.084   1_545  S
C921        C922   1.342   1_554  D
C922        H924   1.087       .  S
C925        H927   1.087       .  S
C925        C926   1.338   1_554  D
C929        C930   1.343   1_554  D
C930        H932   1.087       .  S
C933        C934   1.343       .  D
C934        H936   1.086       .  S
O937       Cu945   1.995       .  S
O937        C947   1.277       .  A
O938       Cu945   2.008       .  S
O938       C1104   1.277       .  A
O939       Cu945   2.004       .  S
O939       C1105   1.276       .  A
O940       Cu945   2.003       .  S
O940        C950   1.278       .  A
O941       Cu946   2.006       .  S
O941       C1106   1.276       .  A
O942       Cu946   2.000       .  S
O942        C949   1.275       .  A
O943       Cu946   2.007       .  S
O943        C948   1.279       .  A
O944       Cu946   2.026       .  S
O944       C1103   1.280       .  A
Cu945     Cu1102   2.376       .  S
Cu946     Cu1101   2.374   1_554  S
C947       O1100   1.279       .  A
C947       C1077   1.479       .  S
C948       O1094   1.276   1_554  A
C948       C1246   1.471   1_554  S
C949       O1095   1.281   1_554  A
C949       C1241   1.477       .  S
C950       O1097   1.276       .  A
C950       C1082   1.468       .  S
C951        C952   1.530       .  S
C951       C1113   1.538       .  S
C951        C955   1.537       .  S
C951       C1078   1.513       .  S
C952        H959   1.084       .  S
C952        C953   1.366       .  D
C953        C954   1.541       .  S
C953       C1070   1.491       .  S
C954       C1114   1.538       .  S
C954        C956   1.536       .  S
C954        H960   1.112       .  S
C955        H961   1.086       .  S
C955        C956   1.369       .  D
C956       C1065   1.478       .  S
C957       C1107   1.542       .  S
C957        H962   1.079       .  S
C957        C958   1.370       .  D
C958       C1110   1.532       .  S
C958       C1073   1.484       .  S
C963       C1061   1.481       .  S
C963        C968   1.404       .  A
C964       C1074   1.477       .  S
C964        C965   1.399       .  A
C965        C966   1.399       .  A
C965        H970   1.086       .  S
C966       C1069   1.483       .  S
C967       C1058   1.483       .  S
C967        C968   1.403       .  A
C968        H969   1.085       .  S
C971        C972   1.541       .  S
C971       C1133   1.533       .  S
C971        C975   1.539       .  S
C971       C1089   1.518       .  S
C972        H979   1.079       .  S
C972        C973   1.369       .  D
C973        C974   1.538       .  S
C973       C1057   1.484       .  S
C974       C1134   1.539       .  S
C974        C976   1.534       .  S
C974        H980   1.112       .  S
C975        H981   1.086       .  S
C975        C976   1.368       .  D
C976       C1053   1.479       .  S
C977       C1127   1.527       .  S
C977        H982   1.084       .  S
C977        C978   1.368       .  D
C978       C1130   1.544       .  S
C978       C1062   1.487       .  S
C983       C1140   1.534       .  S
C983        C989   1.538       .  S
C983        C987   1.536       .  S
C983       C1041   1.510       .  S
C984       C1139   1.524       .  S
C984        H991   1.084       .  S
C984        C985   1.369       .  D
C985       C1142   1.551   1_554  S
C985       C1049   1.491       .  S
C986       C1141   1.543       .  S
C986        C990   1.542       .  S
C986        C988   1.530       .  S
C986        H992   1.112       .  S
C987        H993   1.086       .  S
C987        C988   1.366       .  D
C988       C1081   1.470       .  S
C989        H994   1.084       .  S
C989        C990   1.371       .  D
C990       C1046   1.491       .  S
C995       C1050   1.484       .  S
C995       C1000   1.411       .  A
C996       C1038   1.478       .  S
C996        C997   1.399       .  A
C997        C998   1.399       .  A
C997       H1002   1.086       .  S
C998       C1034   1.478       .  S
C999       C1045   1.496       .  S
C999       C1000   1.407       .  A
C1000      H1001   1.085       .  S
C1003      C1160   1.537       .  S
C1003      C1009   1.528       .  S
C1003      C1007   1.533       .  S
C1003      C1030   1.503       .  S
C1004      C1159   1.530   1_554  S
C1004      H1011   1.084       .  S
C1004      C1005   1.369       .  D
C1005      C1162   1.540   1_554  S
C1005      C1037   1.488       .  S
C1006      C1161   1.537       .  S
C1006      C1010   1.539       .  S
C1006      C1008   1.533       .  S
C1006      H1012   1.112       .  S
C1007      H1013   1.086       .  S
C1007      C1008   1.367       .  D
C1008      C1086   1.470       .  S
C1009      H1014   1.084       .  S
C1009      C1010   1.365       .  D
C1010      C1033   1.485       .  S
O1015     Cu1023   2.006       .  S
O1015      C1025   1.276       .  A
O1016      C1026   1.278       .  A
O1017      C1027   1.277       .  A
O1018      C1028   1.278       .  A
O1019      C1184   1.278   1_554  A
O1020      C1183   1.279   1_554  A
O1021      C1182   1.281       .  A
O1022     Cu1024   2.020       .  S
O1022      C1181   1.280   1_554  A
Cu1023    Cu1180   2.375       .  S
Cu1024    Cu1179   2.375   1_554  S
C1025      O1178   1.280       .  A
C1025      C1066   1.475       .  S
C1026      O1177   1.279       .  A
C1026      C1054   1.480       .  S
C1027      O1176   1.277       .  A
C1027      C1029   1.471       .  S
C1028      O1175   1.277       .  A
C1028      C1042   1.477       .  S
C1029      H1187   1.086       .  S
C1029      C1030   1.342       .  D
C1030      H1032   1.088       .  S
H1031      C1185   1.087       .  S
C1033      H1035   1.086       .  S
C1033      C1034   1.347       .  D
C1034      H1036   1.084       .  S
C1037      H1039   1.086       .  S
C1037      C1038   1.346       .  D
C1038      H1040   1.084   1_655  S
C1041      H1199   1.087       .  S
C1041      C1042   1.346       .  D
C1042      H1044   1.086       .  S
H1043      C1197   1.087       .  S
C1045      H1047   1.084       .  S
C1045      C1046   1.351       .  D
C1046      H1048   1.084       .  S
C1049      H1051   1.085       .  S
C1049      C1050   1.351       .  D
C1050      H1052   1.084       .  S
C1053      H1211   1.086       .  S
C1053      C1054   1.343       .  D
C1054      H1056   1.087       .  S
H1055      C1209   1.087       .  S
C1057      H1059   1.085       .  S
C1057      C1058   1.347       .  D
C1058      H1060   1.084       .  S
C1061      H1063   1.083       .  S
C1061      C1062   1.349       .  D
C1062      H1064   1.086       .  S
C1065      H1223   1.086       .  S
C1065      C1066   1.340       .  D
C1066      H1068   1.087       .  S
H1067      C1221   1.086       .  S
C1069      H1071   1.084       .  S
C1069      C1070   1.348       .  D
C1070      H1072   1.086       .  S
C1073      H1075   1.086       .  S
C1073      C1074   1.343       .  D
C1074      H1076   1.084       .  S
C1077      H1235   1.086       .  S
C1077      C1078   1.346       .  D
C1078      H1080   1.087       .  S
H1079      C1233   1.082       .  S
C1081      H1083   1.087       .  S
C1081      C1082   1.338       .  D
C1082      H1240   1.087       .  S
H1084      C1238   1.087       .  S
C1085      C1105   1.467       .  S
C1085      H1243   1.087       .  S
C1085      C1086   1.338       .  D
C1086      H1088   1.087       .  S
H1087      C1241   1.088       .  S
C1089      H1247   1.087       .  S
C1089      C1090   1.345       .  D
C1090      C1104   1.475       .  S
C1090      H1092   1.081       .  S
H1091      C1245   1.087       .  S
O1093     Cu1101   1.996       .  S
O1093      C1103   1.276   1_556  A
O1094     Cu1101   2.001       .  S
O1095     Cu1101   2.035       .  S
O1096     Cu1101   2.032       .  S
O1096      C1106   1.281   1_556  A
O1097     Cu1102   2.003       .  S
O1098     Cu1102   2.000       .  S
O1098      C1105   1.278       .  A
O1099     Cu1102   2.010       .  S
O1099      C1104   1.279       .  A
O1100     Cu1102   2.027       .  S
C1103      C1233   1.478       .  S
C1106      C1238   1.478       .  S
C1107      C1108   1.532   1_554  S
C1107      C1111   1.539       .  S
C1107      C1234   1.520       .  S
C1108      H1115   1.084       .  S
C1108      C1109   1.368       .  D
C1109      C1110   1.539   1_556  S
C1109      C1226   1.485       .  S
C1110      C1112   1.533       .  S
C1110      H1116   1.112       .  S
C1111      H1117   1.086       .  S
C1111      C1112   1.368       .  D
C1112      C1221   1.478       .  S
C1113      H1118   1.083       .  S
C1113      C1114   1.370       .  D
C1114      C1229   1.487       .  S
C1119      C1217   1.486       .  S
C1119      C1124   1.404       .  A
C1120      C1230   1.487       .  S
C1120      C1121   1.405       .  A
C1121      C1122   1.407       .  A
C1121      H1126   1.085       .  S
C1122      C1225   1.483       .  S
C1123      C1214   1.485       .  S
C1123      C1124   1.406       .  A
C1124      H1125   1.085       .  S
C1127      C1128   1.540   1_554  S
C1127      C1131   1.530       .  S
C1127      C1245   1.516       .  S
C1128      H1135   1.078       .  S
C1128      C1129   1.370       .  D
C1129      C1130   1.545   1_556  S
C1129      C1213   1.498       .  S
C1130      C1132   1.545       .  S
C1130      H1136   1.111       .  S
C1131      H1137   1.087       .  S
C1131      C1132   1.363       .  D
C1132      C1209   1.479       .  S
C1133      H1138   1.084       .  S
C1133      C1134   1.365       .  D
C1134      C1218   1.486       .  S
C1139      C1145   1.530   1_554  S
C1139      C1143   1.535       .  S
C1139      C1197   1.508       .  S
C1140      H1147   1.083       .  S
C1140      C1141   1.367       .  D
C1141      C1205   1.496       .  S
C1142      C1146   1.551       .  S
C1142      C1144   1.542   1_556  S
C1142      H1148   1.109       .  S
C1143      H1149   1.086       .  S
C1143      C1144   1.370       .  D
C1144      C1237   1.485   1_554  S
C1145      H1150   1.087       .  S
C1145      C1146   1.358       .  D
C1146      C1202   1.485       .  S
C1151      C1206   1.492       .  S
C1151      C1156   1.411       .  A
C1152      C1194   1.485       .  S
C1152      C1153   1.406       .  A
C1153      C1154   1.406       .  A
C1153      H1158   1.085       .  S
C1154      C1190   1.484       .  S
C1155      C1201   1.487       .  S
C1155      C1156   1.410       .  A
C1156      H1157   1.084       .  S
C1159      C1165   1.532       .  S
C1159      C1163   1.533       .  S
C1159      C1186   1.508   1_556  S
C1160      H1167   1.084       .  S
C1160      C1161   1.369       .  D
C1161      C1193   1.483       .  S
C1162      C1166   1.545       .  S
C1162      C1164   1.544       .  S
C1162      H1168   1.111       .  S
C1163      H1169   1.086       .  S
C1163      C1164   1.364       .  D
C1164      C1242   1.480       .  S
C1165      H1170   1.083       .  S
C1165      C1166   1.369       .  D
C1166      C1189   1.490       .  S
O1171     Cu1179   2.008       .  S
O1171      C1181   1.276       .  A
O1172      C1182   1.275   1_556  A
O1173      C1183   1.275       .  A
O1174      C1184   1.275       .  A
O1178     Cu1180   2.019       .  S
C1181      C1222   1.476       .  S
C1182      C1210   1.475       .  S
C1183      C1185   1.470       .  S
C1184      C1198   1.468       .  S
C1185      C1186   1.341   1_556  D
C1186      H1188   1.087       .  S
C1189      H1191   1.085       .  S
C1189      C1190   1.350       .  D
C1190      H1192   1.082   1_655  S
C1193      H1195   1.085       .  S
C1193      C1194   1.346       .  D
C1194      H1196   1.084   1_655  S
C1197      C1198   1.341   1_554  D
C1198      H1200   1.087       .  S
C1201      H1203   1.084       .  S
C1201      C1202   1.337       .  D
C1202      H1204   1.087       .  S
C1205      H1207   1.084       .  S
C1205      C1206   1.352       .  D
C1206      H1208   1.082       .  S
C1209      C1210   1.338       .  D
C1210      H1212   1.087   1_554  S
C1213      H1215   1.086       .  S
C1213      C1214   1.351       .  D
C1214      H1216   1.083       .  S
C1217      H1219   1.083       .  S
C1217      C1218   1.351       .  D
C1218      H1220   1.085       .  S
C1221      C1222   1.340   1_554  D
C1222      H1224   1.087       .  S
C1225      H1227   1.083       .  S
C1225      C1226   1.348       .  D
C1226      H1228   1.085       .  S
C1229      H1231   1.085       .  S
C1229      C1230   1.347       .  D
C1230      H1232   1.083       .  S
C1233      C1234   1.350       .  D
C1234      H1236   1.087   1_554  S
C1237      H1239   1.086       .  S
C1237      C1238   1.343   1_556  D
C1241      C1242   1.340   1_554  D
C1242      H1244   1.086       .  S
C1245      C1246   1.344   1_554  D
C1246      H1248   1.081       .  S
