geometry optimzed in LAMMPS
_audit_creation_date              2020-12-01 
_audit_creation_method            'lammps2cif' 
_symmetry_space_group_name_H-M    'P1' 
_symmetry_Int_Tables_number       1 
_symmetry_cell_setting            triclinic 
loop_ 
_symmetry_equiv_pos_as_xyz 
  x,y,z 
_cell_length_a                    28.62852682 
_cell_length_b                    30.13587017445239 
_cell_length_c                    31.178830422900084 
_cell_angle_alpha                 90.0920702330829 
_cell_angle_beta                  104.84750206898292 
_cell_angle_gamma                 91.28908355433553 
loop_ 
_atom_site_label 
_atom_site_type_symbol 
_atom_site_fract_x 
_atom_site_fract_y 
_atom_site_fract_z 
_atom_site_charge 
C1          C  0.28199023  0.39286850  0.87253045     0.86800
C2          C  0.25383274  0.42279092  0.89712905    -0.53400
C3          C  0.26329783  0.41640036  0.94209016     0.09700
C4          C  0.30167098  0.38001439  0.95839219     0.20700
C5          C  0.33571142  0.39980649  0.89672684    -0.54200
C6          C  0.34694473  0.39279995  0.94126148     0.09800
C7          C  0.26733472  0.34653896  0.88613334    -0.53700
C8          C  0.27829327  0.33935855  0.93065339     0.10400
H9          H  0.22555508  0.44406505  0.87927308     0.14900
H10         H  0.31053499  0.37311963  0.99434904     0.00600
H11         H  0.36291795  0.40878397  0.87939148     0.15200
H12         H  0.24425812  0.32304792  0.86358456     0.15000
C13         C  0.46124090  0.39990338  0.03963278     0.86800
C14         C  0.49154983  0.42824382  0.01499655    -0.53400
C15         C  0.48346090  0.41926712  0.97061257     0.09700
C16         C  0.44472706  0.38170336  0.95482220     0.20700
C17         C  0.40841422  0.40456486  0.01367323    -0.54200
C18         C  0.39855736  0.39467875  0.96969989     0.09800
C19         C  0.47457376  0.35254656  0.02916250    -0.53700
C20         C  0.46643350  0.34264292  0.98487205     0.10400
H21         H  0.02071762  0.44992302  0.03246562     0.14900
H22         H  0.43744253  0.37376536  0.91918829     0.00600
H23         H  0.38076149  0.41367137  0.02918776     0.15200
H24         H  0.49028080  0.32893044  0.05474017     0.15000
O25         O  0.27260729  0.87075043  0.96043459    -0.72600
O26         O  0.25614561  0.00293687  0.96288516    -0.73600
O27         O  0.26950175  0.93414506  0.02677127    -0.62200
O28         O  0.25941907  0.93934756  0.89655645    -0.70700
O29         O  0.18011987  0.92805429  0.88232062    -0.70200
O30         O  0.19012178  0.92766767  0.01354920    -0.61500
O31         O  0.17632822  0.99360827  0.94679558    -0.74000
O32         O  0.19322558  0.86123031  0.94922993    -0.72700
Cu33       Cu  0.26713196  0.93715194  0.96212082     1.04600
Cu34       Cu  0.18213352  0.92718558  0.94743159     1.04300
C35         C  0.23535789  0.84519304  0.95515704     0.93600
C36         C  0.21386771  0.01902525  0.95490669     0.92700
C37         C  0.23166116  0.93081783  0.04118965     0.84800
C38         C  0.21826184  0.93445978  0.86873720     0.91100
O39         O  0.02218630  0.92349909  0.90265584    -0.72600
O40         O  0.02352393  0.92827773  0.03211952    -0.73600
O41         O  0.02278253  0.86000341  0.96905346    -0.62200
O42         O  0.02442222  0.99271162  0.96580272    -0.70700
O43         O  0.44411024  0.99241642  0.94704320    -0.70200
O44         O  0.44257897  0.85877620  0.95280547    -0.61500
O45         O  0.44376934  0.92944918  0.01392661    -0.74000
O46         O  0.44212437  0.92190833  0.88541629    -0.72700
Cu47       Cu  0.02602808  0.92624792  0.96805690     1.04600
Cu48       Cu  0.44035206  0.92563093  0.94913256     1.04300
C49         C  0.48162453  0.92098016  0.87355910     0.93600
C50         C  0.48380396  0.92979966  0.04367927     0.92700
C51         C  0.48264293  0.83851645  0.96130589     0.84800
C52         C  0.48475158  0.01344217  0.95622005     0.91100
C53         C  0.21257832  0.45719362  0.03970919     0.86800
C54         C  0.15964484  0.44986721  0.01299863    -0.53400
C55         C  0.15012483  0.46083726  0.96933623     0.09700
C56         C  0.19680469  0.47515173  0.95497384     0.20700
C57         C  0.24004549  0.42750764  0.01439014    -0.54200
C58         C  0.23403958  0.43767436  0.97046875     0.09800
C59         C  0.22627328  0.50480081  0.02961579    -0.53700
C60         C  0.21882116  0.51469357  0.98559287     0.10400
H61         H  0.13158959  0.43628634  0.02715495     0.14900
H62         H  0.18990241  0.48337607  0.91946036     0.00600
H63         H  0.26181736  0.40033152  0.03007043     0.15200
H64         H  0.24033634  0.52913536  0.05574588     0.15000
C65         C  0.03266210  0.46377762  0.87311942     0.86800
C66         C  0.08629512  0.45638669  0.89640688    -0.53400
C67         C  0.09860063  0.46274486  0.94117726     0.09700
C68         C  0.05472826  0.47562730  0.95933593     0.20700
C69         C  0.00357473  0.43363385  0.89738286    -0.54200
C70         C  0.01408606  0.43967547  0.94251685     0.09800
C71         C  0.02125247  0.51008995  0.88850879    -0.53700
C72         C  0.03358725  0.51677361  0.93324869     0.10400
H73         H  0.11264918  0.44771654  0.87837154     0.14900
H74         H  0.06466217  0.48207202  0.99537006     0.00600
H75         H  0.47432325  0.41226019  0.87912808     0.15200
H76         H  0.99884455  0.53391201  0.86746389     0.15000
C77         C  0.02001182  0.89439313  0.37591831     0.86800
C78         C  0.98961473  0.92229931  0.39993541    -0.53400
C79         C  0.99865507  0.91555125  0.44475106     0.09700
C80         C  0.03935816  0.88148509  0.46180621     0.20700
C81         C  0.07311388  0.90354442  0.40051639    -0.54200
C82         C  0.08430756  0.89662258  0.44508486     0.09800
C83         C  0.00805480  0.84719262  0.38945796    -0.53700
C84         C  0.01863191  0.83987009  0.43418665     0.10400
H85         H  0.45990716  0.94193185  0.38174717     0.14900
H86         H  0.04812663  0.87561959  0.49793884     0.00600
H87         H  0.10008179  0.91370482  0.38331956     0.15200
H88         H  0.98918200  0.82207710  0.36620701     0.15000
C89         C  0.20189050  0.90617513  0.54150548     0.86800
C90         C  0.22820687  0.93640070  0.51539290    -0.53400
C91         C  0.21898660  0.92686571  0.47107900     0.09700
C92         C  0.18172271  0.88781500  0.45656037     0.20700
C93         C  0.14758547  0.90880101  0.51741212    -0.54200
C94         C  0.13616560  0.89922927  0.47311658     0.09800
C95         C  0.21433935  0.85871925  0.53042580    -0.53700
C96         C  0.20553347  0.84954702  0.48625795     0.10400
H97         H  0.25347688  0.96204555  0.53195854     0.14900
H98         H  0.17328425  0.87880634  0.42098426     0.00600
H99         H  0.12026282  0.91694465  0.53438209     0.15200
H100        H  0.22717654  0.83311894  0.55457521     0.15000
O101        O  0.29670545  0.43938404  0.53177724    -0.72600
O102        O  0.29832802  0.44031237  0.40334315    -0.73600
O103        O  0.29828446  0.50677648  0.46822872    -0.62200
O104        O  0.29726291  0.37366241  0.46705840    -0.70700
O105        O  0.21702650  0.37270731  0.45132487    -0.70200
O106        O  0.21808985  0.50570145  0.44528611    -0.61500
O107        O  0.21810065  0.43579313  0.38422133    -0.74000
O108        O  0.21708621  0.44247526  0.51231989    -0.72700
Cu109      Cu  0.30048577  0.44017839  0.46828865     1.04600
Cu110      Cu  0.21478461  0.43918380  0.44758609     1.04300
C111        C  0.25661653  0.44071432  0.54263474     0.93600
C112        C  0.25830708  0.43727476  0.37355218     0.92700
C113        C  0.25840340  0.52711584  0.45651952     0.84800
C114        C  0.25694233  0.35230696  0.45956527     0.91100
O115        O  0.45953894  0.42338901  0.38189475    -0.72600
O116        O  0.45701429  0.42081780  0.51096048    -0.73600
O117        O  0.45399704  0.48794095  0.44679488    -0.62200
O118        O  0.46204291  0.35485621  0.44626046    -0.70700
O119        O  0.04225102  0.36030210  0.46473713    -0.70200
O120        O  0.03423110  0.49311504  0.46633062    -0.61500
O121        O  0.03682344  0.42473759  0.52918245    -0.74000
O122        O  0.03952358  0.42931520  0.40187889    -0.72700
Cu123      Cu  0.45525808  0.42138284  0.44565429     1.04600
Cu124      Cu  0.04088553  0.42696579  0.46618698     1.04300
C125        C  0.49994540  0.42765979  0.37161974     0.93600
C126        C  0.49712393  0.42314159  0.54076994     0.92700
C127        C  0.49305525  0.51134072  0.45671874     0.84800
C128        C  0.50332215  0.33668992  0.45596743     0.91100
C129        C  0.26793851  0.96747269  0.37243544     0.86800
C130        C  0.32089852  0.95716452  0.39629972    -0.53400
C131        C  0.33296091  0.96459434  0.44093835     0.09700
C132        C  0.29009524  0.98209352  0.45807484     0.20700
C133        C  0.23655502  0.94096681  0.39705387    -0.54200
C134        C  0.24733800  0.94828231  0.44181903     0.09800
C135        C  0.26373839  0.01619669  0.38595740    -0.53700
C136        C  0.27348593  0.02373970  0.43050124     0.10400
H137        H  0.34695064  0.94575114  0.37906568     0.14900
H138        H  0.30008536  0.98927000  0.49398743     0.00600
H139        H  0.20724919  0.91928446  0.37936263     0.15200
H140        H  0.25648166  0.04383550  0.36337960     0.15000
C141        C  0.44229758  0.94832347  0.54107952     0.86800
C142        C  0.38993171  0.94509340  0.51251754    -0.53400
C143        C  0.38321084  0.95876986  0.46991225     0.09700
C144        C  0.43153747  0.97249920  0.45831743     0.20700
C145        C  0.46942485  0.91959593  0.51447444    -0.54200
C146        C  0.46670369  0.93357085  0.47220964     0.09800
C147        C  0.45886831  0.99627398  0.53516965    -0.53700
C148        C  0.45410498  0.00924587  0.49205606     0.10400
H149        H  0.35985808  0.93382227  0.52512658     0.14900
H150        H  0.42680576  0.98275091  0.42355201     0.00600
H151        H  0.98747434  0.88948675  0.52694431     0.15200
H152        H  0.47246959  0.01844298  0.56330001     0.15000
C153        C  0.52909043  0.11724728  0.49546308    -0.05200
C154        C  0.49553101  0.14480558  0.46735508     0.09000
C155        C  0.45085772  0.12634917  0.44329456    -0.02500
C156        C  0.43982672  0.08094863  0.44717807    -0.00800
C157        C  0.47027073  0.05465355  0.48009679    -0.04400
C158        C  0.51567483  0.07324775  0.50359469     0.02600
C159        C  0.50477297  0.19400501  0.46577569     0.09400
C160        C  0.41514078  0.15477765  0.41580070     0.35300
C161        C  0.04821242  0.04769573  0.53717636     0.38800
C162        C  0.50784258  0.21461533  0.42578548    -0.04800
C163        C  0.50693148  0.26135691  0.42221319     0.02400
C164        C  0.50602747  0.28777144  0.45937829    -0.04400
C165        C  0.50653587  0.26732013  0.50014914    -0.00600
C166        C  0.50464796  0.22068223  0.50307756    -0.03200
C167        C  0.01037130  0.18762540  0.38786670     0.36100
C168        C  0.50819498  0.29430564  0.53909611     0.39700
C169        C  0.00468520  0.28214548  0.37977339     0.38800
C170        C  0.50042060  0.20018974  0.54404410     0.35800
C171        C  0.07711542  0.13454711  0.51656222     0.36400
C172        C  0.39699905  0.06266265  0.41665071     0.39700
N173        N  0.00224566  0.29840213  0.34569394    -0.38400
N174        N  0.01235234  0.16601960  0.35768765    -0.40000
N175        N  0.50997763  0.31547520  0.57048265    -0.37700
N176        N  0.49706418  0.18373132  0.57666491    -0.40100
N177        N  0.38711119  0.17795291  0.39413181    -0.39900
N178        N  0.36347073  0.04998023  0.38992523    -0.37500
N179        N  0.07241322  0.02713240  0.56516968    -0.38600
N180        N  0.11556205  0.14821869  0.53327180    -0.40200
C181        C  0.29763116  0.14028135  0.47923157    -0.05200
C182        C  0.25384523  0.16033570  0.45828546     0.09000
C183        C  0.21368990  0.13373203  0.43652375    -0.02500
C184        C  0.21891918  0.08766079  0.43188210    -0.00800
C185        C  0.26467236  0.06827789  0.44795631    -0.04400
C186        C  0.30260565  0.09422108  0.47493419     0.02600
C187        C  0.25141406  0.20969922  0.45747248     0.09400
C188        C  0.16762769  0.15409473  0.41776236     0.35300
C189        C  0.34646403  0.07440852  0.49952523     0.38800
C190        C  0.26573742  0.23328921  0.42375268    -0.04800
C191        C  0.27031113  0.27989466  0.42594472     0.02400
C192        C  0.25630623  0.30331035  0.45966241    -0.04400
C193        C  0.24108412  0.27972902  0.49297253    -0.00600
C194        C  0.23955206  0.23294392  0.49233006    -0.03200
C195        C  0.27503695  0.20946608  0.38646565     0.36100
C196        C  0.23010018  0.30334338  0.52955769     0.39700
C197        C  0.29080831  0.30354707  0.39431967     0.38800
C198        C  0.22712728  0.20864534  0.52811327     0.35800
C199        C  0.33816384  0.16748229  0.50403227     0.36400
C200        C  0.17704768  0.05986472  0.41158124     0.39700
N201        N  0.30806645  0.32220781  0.36958023    -0.38400
N202        N  0.28144922  0.19036577  0.35633600    -0.40000
N203        N  0.22187241  0.32141363  0.55944365    -0.37700
N204        N  0.21771055  0.18935970  0.55696479    -0.40100
N205        N  0.13097328  0.17058298  0.40283022    -0.39900
N206        N  0.14360935  0.03746508  0.39601380    -0.37500
N207        N  0.38200079  0.06125980  0.52171561    -0.38600
N208        N  0.37044034  0.18920416  0.52369580    -0.40200
C209        C  0.28195478  0.74965897  0.47807575    -0.05200
C210        C  0.24569490  0.71803671  0.45854439     0.09000
C211        C  0.19780450  0.73183265  0.44143154    -0.02500
C212        C  0.18601488  0.77635384  0.44574377    -0.00800
C213        C  0.22067271  0.80670103  0.47034474    -0.04400
C214        C  0.26941841  0.79375124  0.48438628     0.02600
C215        C  0.25646035  0.66971816  0.45840586     0.09400
C216        C  0.16006602  0.69963506  0.42128505     0.35300
C217        C  0.30702347  0.82579783  0.50464922     0.38800
C218        C  0.26572772  0.64577817  0.49851369    -0.04800
C219        C  0.26851013  0.59918809  0.49786132     0.02400
C220        C  0.25886903  0.57610780  0.45701676    -0.04400
C221        C  0.24837676  0.59995415  0.41690862    -0.00600
C222        C  0.25034249  0.64669575  0.41779105    -0.03200
C223        C  0.26987681  0.66885663  0.54027407     0.36100
C224        C  0.23200853  0.57672180  0.37479820     0.39700
C225        C  0.27768834  0.57486645  0.53915200     0.38800
C226        C  0.24457981  0.67125509  0.37684281     0.35800
C227        C  0.33186264  0.73650918  0.49294191     0.36400
C228        C  0.13820354  0.79048556  0.42439614     0.39700
N229        N  0.28464000  0.55589153  0.57232103    -0.38400
N230        N  0.27306148  0.68732551  0.57351110    -0.40000
N231        N  0.21742567  0.55872477  0.34103736    -0.37700
N232        N  0.24024196  0.69098258  0.34429552    -0.40100
N233        N  0.13050746  0.67350304  0.40528960    -0.39900
N234        N  0.09994751  0.80075840  0.40562525    -0.37500
N235        N  0.33793031  0.85065381  0.52065772    -0.38600
N236        N  0.37174511  0.72625965  0.50514321    -0.40200
C237        C  0.03746870  0.72501438  0.48436569    -0.05200
C238        C  0.99415151  0.70340798  0.46113945     0.09000
C239        C  0.45527995  0.72868888  0.43755077    -0.02500
C240        C  0.46150940  0.77485985  0.43339536    -0.00800
C241        C  0.00697642  0.79587194  0.45194905    -0.04400
C242        C  0.04316864  0.77142336  0.48111865     0.02600
C243        C  0.99089671  0.65388830  0.45895674     0.09400
C244        C  0.40971110  0.70679257  0.41577574     0.35300
C245        C  0.08619416  0.79327896  0.50802386     0.38800
C246        C  0.47680817  0.62932524  0.49222585    -0.04800
C247        C  0.47570231  0.58250970  0.49058159     0.02400
C248        C  0.99077481  0.56024517  0.45674432    -0.04400
C249        C  0.00490677  0.58483637  0.42350584    -0.00600
C250        C  0.00359663  0.63152591  0.42391580    -0.03200
C251        C  0.46440947  0.65223589  0.52854919     0.36100
C252        C  0.02098024  0.56211417  0.38896984     0.39700
C253        C  0.46046072  0.55722762  0.52439170     0.38800
C254        C  0.01486376  0.65671703  0.38808340     0.35800
C255        C  0.07718025  0.69907942  0.50960439     0.36400
C256        C  0.42121291  0.80091957  0.40973784     0.39700
N257        N  0.44820874  0.53701399  0.55127690    -0.38400
N258        N  0.45491141  0.67035344  0.55784793    -0.40000
N259        N  0.03422421  0.54411972  0.36160449    -0.37700
N260        N  0.02319079  0.67694775  0.35928866    -0.40100
N261        N  0.37339693  0.68922755  0.39844914    -0.39900
N262        N  0.38950823  0.82218318  0.39077151    -0.37500
N263        N  0.12035111  0.80957457  0.53123454    -0.38600
N264        N  0.10898278  0.67835365  0.52942181    -0.40200
C265        C  0.04116985  0.44648113  0.66543873    -0.05200
C266        C  0.00299255  0.42853245  0.68139845     0.09000
C267        C  0.46312872  0.40750333  0.65159740    -0.02500
C268        C  0.46097975  0.40526141  0.60576284    -0.00800
C269        C  0.99852998  0.42486445  0.58920115    -0.04400
C270        C  0.03829683  0.44616536  0.61970368     0.02600
C271        C  0.00382405  0.43582025  0.72920389     0.09400
C272        C  0.42440780  0.38806762  0.66816713     0.35300
C273        C  0.07536064  0.47038520  0.60443829     0.38800
C274        C  0.99999835  0.47927306  0.74409201    -0.04800
C275        C  0.01372443  0.48954667  0.78977402     0.02400
C276        C  0.02186526  0.45492571  0.82214857    -0.04400
C277        C  0.02340362  0.41055051  0.80621110    -0.00600
C278        C  0.01600482  0.40155337  0.76034682    -0.03200
C279        C  0.98464760  0.51425350  0.71175540     0.36100
C280        C  0.03461672  0.37366763  0.83674698     0.39700
C281        C  0.02630080  0.53572494  0.80102469     0.38800
C282        C  0.02263960  0.35715623  0.74517159     0.35800
C283        C  0.08358948  0.46587119  0.69644070     0.36400
C284        C  0.42020020  0.38226812  0.57614933     0.39700
N285        N  0.03611881  0.57292308  0.80848171    -0.38400
N286        N  0.97230139  0.54193969  0.68591986    -0.40000
N287        N  0.04276877  0.34394247  0.86076671    -0.37700
N288        N  0.52798204  0.32179876  0.73304454    -0.40100
N289        N  0.39368687  0.37212839  0.68133279    -0.39900
N290        N  0.38753012  0.36382415  0.55281142    -0.37500
N291        N  0.10486100  0.49006044  0.59257940    -0.38600
N292        N  0.11741717  0.48108600  0.72119607    -0.40200
C293        C  0.19817600  0.45766518  0.16110583    -0.05200
C294        C  0.24195396  0.43965759  0.18486960     0.09000
C295        C  0.27701930  0.42894799  0.16263427    -0.02500
C296        C  0.26900015  0.43756051  0.11686102    -0.00800
C297        C  0.22260183  0.45046142  0.09083944    -0.04400
C298        C  0.18853517  0.46363941  0.11477427     0.02600
C299        C  0.25222638  0.43589598  0.23417528     0.09400
C300        C  0.32198732  0.40981711  0.18732410     0.35300
C301        C  0.14487535  0.48685271  0.09383829     0.38800
C302        C  0.23196150  0.40021720  0.25290881    -0.04800
C303        C  0.23348081  0.40080371  0.29842140     0.02400
C304        C  0.25826563  0.43568548  0.32604108    -0.04400
C305        C  0.28161445  0.46981836  0.30774521    -0.00600
C306        C  0.27755875  0.47049291  0.26170676    -0.03200
C307        C  0.20917826  0.36315504  0.22500062     0.36100
C308        C  0.30731049  0.50564500  0.33584414     0.39700
C309        C  0.20925955  0.36553100  0.31659298     0.38800
C310        C  0.29738525  0.50780668  0.24226815     0.35800
C311        C  0.16340407  0.47132614  0.18504342     0.36400
C312        C  0.31119565  0.43983352  0.09952468     0.39700
N313        N  0.18972955  0.33729158  0.33077171    -0.38400
N314        N  0.19140502  0.33350689  0.20263468    -0.40000
N315        N  0.32766388  0.53419163  0.35841758    -0.37700
N316        N  0.31281761  0.53775622  0.22669181    -0.40100
N317        N  0.35750298  0.39407602  0.20704246    -0.39900
N318        N  0.34616682  0.44259347  0.08761296    -0.37500
N319        N  0.10930872  0.50514422  0.07905510    -0.38600
N320        N  0.13606583  0.48222540  0.20442497    -0.40200
C321        C  0.04473933  0.63260009  0.98264315    -0.05200
C322        C  0.99748153  0.64748261  0.96510141     0.09000
C323        C  0.46019127  0.61672136  0.94608053    -0.02500
C324        C  0.47121458  0.57207456  0.94019462    -0.00800
C325        C  0.01973929  0.55830190  0.95281297    -0.04400
C326        C  0.05554082  0.58787076  0.97748883     0.02600
C327        C  0.98872504  0.69615306  0.96277952     0.09400
C328        C  0.41100906  0.63162493  0.93055417     0.35300
C329        C  0.10366247  0.57319935  0.99750705     0.38800
C330        C  0.99528761  0.72001923  0.92578336    -0.04800
C331        C  0.99359397  0.76667111  0.92548429     0.02400
C332        C  0.98282822  0.78954237  0.96119620    -0.04400
C333        C  0.47548046  0.76561931  0.99795350    -0.00600
C334        C  0.47923759  0.71899713  0.99905998    -0.03200
C335        C  0.00528911  0.69643517  0.88860259     0.36100
C336        C  0.46684578  0.78917234  0.03566001     0.39700
C337        C  0.00501491  0.79111939  0.88927329     0.38800
C338        C  0.47563607  0.69466256  0.03819269     0.35800
C339        C  0.08279887  0.66416591  0.00366746     0.36400
C340        C  0.43283254  0.54034869  0.92048696     0.39700
N341        N  0.01504663  0.81021010  0.86059045    -0.38400
N342        N  0.01305767  0.67739993  0.85900533    -0.40000
N343        N  0.46034700  0.80776523  0.06602896    -0.37700
N344        N  0.47329795  0.67520409  0.06957237    -0.40100
N345        N  0.37178257  0.64364909  0.91814587    -0.39900
N346        N  0.40249596  0.51473998  0.90486545    -0.37500
N347        N  0.14243222  0.56351423  0.01566245    -0.38600
N348        N  0.11278993  0.68976442  0.02009074    -0.40200
C349        C  0.50530691  0.94242834  0.76036202    -0.05200
C350        C  0.46913872  0.91517480  0.73267831     0.09000
C351        C  0.44112778  0.88605828  0.75168902    -0.02500
C352        C  0.44527429  0.88770388  0.79772400    -0.00800
C353        C  0.47977582  0.91681581  0.82549803    -0.04400
C354        C  0.51154243  0.94238965  0.80672167     0.02600
C355        C  0.45923075  0.91911568  0.68330230     0.09400
C356        C  0.40919997  0.85355693  0.72380663     0.35300
C357        C  0.54968456  0.96991797  0.83457950     0.38800
C358        C  0.49141643  0.90172400  0.66101458    -0.04800
C359        C  0.48920746  0.91425242  0.61697779     0.02400
C360        C  0.44850183  0.93749172  0.59121049    -0.04400
C361        C  0.41534365  0.95417511  0.61460614    -0.00600
C362        C  0.42100795  0.94495224  0.66003838    -0.03200
C363        C  0.02668429  0.87055486  0.68409030     0.36100
C364        C  0.37619675  0.98298931  0.59398254     0.39700
C365        C  0.03301569  0.90930823  0.60255922     0.38800
C366        C  0.38750313  0.96243730  0.68342922     0.35800
C367        C  0.53555311  0.97120781  0.74090711     0.36400
C368        C  0.41478390  0.85845443  0.81643742     0.39700
N369        N  0.06887046  0.90536368  0.59243993    -0.38400
N370        N  0.05293340  0.84458495  0.70340415    -0.40000
N371        N  0.34373206  0.00544202  0.57962667    -0.37700
N372        N  0.36087298  0.97603141  0.70227766    -0.40100
N373        N  0.38462948  0.82703351  0.70153630    -0.39900
N374        N  0.89043499  0.83517137  0.83128609    -0.37500
N375        N  0.58020739  0.99189443  0.85664037    -0.38600
N376        N  0.55964308  0.99405519  0.72527651    -0.40200
C377        C  0.99385700  0.95552614  0.26246937    -0.05200
C378        C  0.99299781  0.92061932  0.23223073     0.09000
C379        C  0.00378567  0.87752362  0.24825490    -0.02500
C380        C  0.01419549  0.86879114  0.29414661    -0.00800
C381        C  0.01120237  0.90305971  0.32521646    -0.04400
C382        C  0.00516376  0.94731625  0.30860635     0.02600
C383        C  0.98722444  0.92937041  0.18381171     0.09400
C384        C  0.00607271  0.84210440  0.21709058     0.35300
C385        C  0.01443707  0.98525935  0.33860769     0.38800
C386        C  0.02644840  0.94748655  0.16954372    -0.04800
C387        C  0.02476113  0.94922028  0.12397265     0.02400
C388        C  0.98401112  0.93149897  0.09186175    -0.04400
C389        C  0.44391755  0.91460331  0.10650009    -0.00600
C390        C  0.44555682  0.91396428  0.15215122    -0.03200
C391        C  0.06967206  0.96250380  0.20224065     0.36100
C392        C  0.40166735  0.89534759  0.07532688     0.39700
C393        C  0.06520181  0.96975662  0.11070460     0.38800
C394        C  0.40528330  0.89506033  0.16689658     0.35800
C395        C  0.98400431  0.00025369  0.24596569     0.36400
C396        C  0.03230792  0.82513557  0.30778002     0.39700
N397        N  0.09753428  0.98627136  0.10040037    -0.38400
N398        N  0.10391577  0.97416384  0.22876656    -0.40000
N399        N  0.36796362  0.87971354  0.05073766    -0.37700
N400        N  0.37338454  0.87950724  0.17860897    -0.40100
N401        N  0.50786764  0.81415324  0.19214544    -0.39900
N402        N  0.04583445  0.78949345  0.31615631    -0.37500
N403        N  0.02208883  0.01564024  0.36235987    -0.38600
N404        N  0.97610600  0.03590374  0.23276922    -0.40200
C405        C  0.23720020  0.72612961  0.99525955    -0.05200
C406        C  0.24704905  0.70271897  0.95946421     0.09000
C407        C  0.25566118  0.72645489  0.92306681    -0.02500
C408        C  0.25298920  0.77326664  0.92198991    -0.00800
C409        C  0.24104365  0.79639824  0.95701373    -0.04400
C410        C  0.23407211  0.77271426  0.99397243     0.02600
C411        C  0.24442655  0.65295250  0.95919565     0.09400
C412        C  0.26647988  0.70262526  0.88648846     0.35300
C413        C  0.22476871  0.79626321  0.03134876     0.38800
C414        C  0.20220758  0.63073638  0.93479394    -0.04800
C415        C  0.19615442  0.58452332  0.93927081     0.02400
C416        C  0.23074003  0.56033430  0.97073504    -0.04400
C417        C  0.27501468  0.58226546  0.99226087    -0.00600
C418        C  0.28164787  0.62831408  0.98655391    -0.03200
C419        C  0.16343065  0.65609367  0.90708869     0.36100
C420        C  0.31411659  0.55754888  0.02016047     0.39700
C421        C  0.15361734  0.56313805  0.91140023     0.38800
C422        C  0.32579870  0.65100394  0.01055751     0.35800
C423        C  0.22976316  0.70204104  0.03333167     0.36400
C424        C  0.26146300  0.79757937  0.88446141     0.39700
N425        N  0.11959260  0.54815280  0.88698533    -0.38400
N426        N  0.13244402  0.67639416  0.88532007    -0.40000
N427        N  0.34542705  0.53804983  0.04251166    -0.37700
N428        N  0.36072577  0.66948775  0.02986095    -0.40100
N429        N  0.27493661  0.68367369  0.85715438    -0.39900
N430        N  0.26834065  0.81703988  0.85460423    -0.37500
N431        N  0.21785400  0.81441452  0.06175442    -0.38600
N432        N  0.22419660  0.68262817  0.06370362    -0.40200
C433        C  0.26467894  0.90662305  0.26250199    -0.05200
C434        C  0.24646697  0.93941955  0.23097591     0.09000
C435        C  0.22699186  0.97798717  0.24413716    -0.02500
C436        C  0.22804571  0.98493115  0.28904226    -0.00800
C437        C  0.25444405  0.95607350  0.32222886    -0.04400
C438        C  0.26745685  0.91435625  0.30776753     0.02600
C439        C  0.24493232  0.93293234  0.18316124     0.09400
C440        C  0.20499064  0.01033715  0.21100567     0.35300
C441        C  0.28022079  0.87814781  0.33886728     0.38800
C442        C  0.20411915  0.91257423  0.15425149    -0.04800
C443        C  0.19945187  0.91181375  0.10808143     0.02400
C444        C  0.23628646  0.93106374  0.09030724    -0.04400
C445        C  0.27764922  0.95107995  0.12011147    -0.00600
C446        C  0.28178512  0.95174769  0.16615691    -0.03200
C447        C  0.16644218  0.89297778  0.17223716     0.36100
C448        C  0.31515753  0.97346927  0.10392871     0.39700
C449        C  0.15637308  0.89105544  0.07949161     0.38800
C450        C  0.32365046  0.97283166  0.19631767     0.35800
C451        C  0.28057082  0.86501321  0.24828775     0.36400
C452        C  0.19538284  0.01721548  0.29875935     0.39700
N453        N  0.12188591  0.87434900  0.05706266    -0.38400
N454        N  0.13655981  0.87721662  0.18666350    -0.40000
N455        N  0.34511258  0.99158153  0.09132696    -0.37700
N456        N  0.35703585  0.98948454  0.22042349    -0.40100
N457        N  0.18757313  0.03602575  0.18449937    -0.39900
N458        N  0.16850439  0.04292709  0.30525026    -0.37500
N459        N  0.28888206  0.84915046  0.36371319    -0.38600
N460        N  0.29318016  0.83177133  0.23695262    -0.40200
C461        C  0.18708891  0.90335043  0.74594685    -0.05200
C462        C  0.21257977  0.93661852  0.72879942     0.09000
C463        C  0.23924716  0.96969454  0.75744331    -0.02500
C464        C  0.24206772  0.96845056  0.80326556    -0.00800
C465        C  0.21506725  0.93604443  0.82031862    -0.04400
C466        C  0.18656588  0.90410836  0.79105178     0.02600
C467        C  0.21573526  0.93347347  0.68166450     0.09400
C468        C  0.26475755  0.00448967  0.73990991     0.35300
C469        C  0.15882044  0.87037279  0.80760203     0.38800
C470        C  0.19096565  0.96294953  0.64904617    -0.04800
C471        C  0.19227002  0.95723595  0.60442260     0.02400
C472        C  0.21372519  0.91928981  0.59127284    -0.04400
C473        C  0.24615856  0.89562167  0.62531585    -0.00600
C474        C  0.24529061  0.90128991  0.66996945    -0.03200
C475        C  0.16344536  0.99847948  0.66117583     0.36100
C476        C  0.28547180  0.87097958  0.61633691     0.39700
C477        C  0.17570691  0.99220888  0.57267987     0.38800
C478        C  0.27426560  0.87349440  0.70419925     0.35800
C479        C  0.16481238  0.86634848  0.71768432     0.36400
C480        C  0.27322751  0.00049897  0.83266961     0.39700
N481        N  0.16460957  0.02010438  0.54684443    -0.38400
N482        N  0.14149707  0.02684056  0.67093159    -0.40000
N483        N  0.31755913  0.85151972  0.61020194    -0.37700
N484        N  0.29623270  0.85124214  0.73201624    -0.40100
N485        N  0.28449893  0.03271667  0.72592199    -0.39900
N486        N  0.29847748  0.02585622  0.85601411    -0.37500
N487        N  0.13651520  0.84361387  0.82079397    -0.38600
N488        N  0.14909908  0.83642332  0.69482637    -0.40200
C489        C  0.03497317  0.40909636  0.26279456    -0.05200
C490        C  0.49829746  0.43187442  0.23257142     0.09000
C491        C  0.46528395  0.45698376  0.24868680    -0.02500
C492        C  0.46716335  0.45704895  0.29431219    -0.00800
C493        C  0.50104130  0.43089278  0.32414704    -0.04400
C494        C  0.03615125  0.40820896  0.30832047     0.02600
C495        C  0.49013289  0.42455959  0.18356138     0.09400
C496        C  0.42860553  0.48201651  0.21807113     0.35300
C497        C  0.07236435  0.38235202  0.33847721     0.38800
C498        C  0.46965548  0.38382424  0.16493992    -0.04800
C499        C  0.45666923  0.37743740  0.11859419     0.02400
C500        C  0.46855075  0.41010195  0.08986502    -0.04400
C501        C  0.48361702  0.45292769  0.10868967    -0.00600
C502        C  0.49666377  0.45927660  0.15526625    -0.03200
C503        C  0.46094409  0.34835814  0.19372454     0.36100
C504        C  0.47951163  0.49200770  0.08096281     0.39700
C505        C  0.42641741  0.33896422  0.10143913     0.38800
C506        C  0.01598911  0.50201395  0.17410406     0.35800
C507        C  0.07046554  0.38514525  0.24665160     0.36400
C508        C  0.43579760  0.48592985  0.31073252     0.39700
N509        N  0.40159496  0.30803082  0.09039449    -0.38400
N510        N  0.45455946  0.32001044  0.21672287    -0.40000
N511        N  0.97591354  0.52344814  0.05907235    -0.37700
N512        N  0.03126257  0.53609400  0.18915933    -0.40100
N513        N  0.39975208  0.50207846  0.19336138    -0.39900
N514        N  0.41158227  0.50987162  0.32386066    -0.37500
N515        N  0.10096706  0.36181352  0.36293234    -0.38600
N516        N  0.09857144  0.36583676  0.23365568    -0.40200
C517        C  0.49538840  0.13288435  0.92083901    -0.05200
C518        C  0.49251807  0.15625275  0.95938029     0.09000
C519        C  0.48668503  0.13240866  0.99674600    -0.02500
C520        C  0.48491759  0.08561683  0.99589151    -0.00800
C521        C  0.48625327  0.06246742  0.95687765    -0.04400
C522        C  0.49024367  0.08623556  0.91903137     0.02600
C523        C  0.49066206  0.20588692  0.95930634     0.09400
C524        C  0.48089899  0.15608450  0.03556031     0.35300
C525        C  0.98600985  0.06303486  0.87745360     0.38800
C526        C  0.44947706  0.22689703  0.93354080    -0.04800
C527        C  0.44480376  0.27307257  0.93703145     0.02400
C528        C  0.47899949  0.29819621  0.96923581    -0.04400
C529        C  0.52287542  0.27796474  0.99109854    -0.00600
C530        C  0.52847788  0.23189113  0.98645632    -0.03200
C531        C  0.41021450  0.20058265  0.90546054     0.36100
C532        C  0.06271494  0.30478849  0.01758565     0.39700
C533        C  0.40338978  0.29359531  0.90851278     0.38800
C534        C  0.07250582  0.21098423  0.01068399     0.35800
C535        C  0.00286367  0.15693548  0.88278075     0.36400
C536        C  0.48078576  0.06132714  0.03493732     0.39700
N537        N  0.37026876  0.30915037  0.88471599    -0.38400
N538        N  0.37887229  0.17966214  0.88316102    -0.40000
N539        N  0.09447042  0.32627414  0.03852013    -0.37700
N540        N  0.10753280  0.19418481  0.03001833    -0.40100
N541        N  0.47613678  0.17509232  0.06638761    -0.39900
N542        N  0.47746350  0.04225601  0.06624046    -0.37500
N543        N  0.98119038  0.04510344  0.84371681    -0.38600
N544        N  0.00875780  0.17606475  0.85236826    -0.40200
C545        C  0.26130602  0.45447268  0.75978338    -0.05200
C546        C  0.26006402  0.41970323  0.72940994     0.09000
C547        C  0.26676256  0.37595389  0.74479715    -0.02500
C548        C  0.27365741  0.36651836  0.79032844    -0.00800
C549        C  0.27336324  0.40134736  0.82180531    -0.04400
C550        C  0.27081726  0.44585067  0.80567577     0.02600
C551        C  0.25710344  0.42932321  0.68166334     0.09400
C552        C  0.26807588  0.34043831  0.71343281     0.35300
C553        C  0.28140119  0.48358655  0.83589550     0.38800
C554        C  0.29785524  0.44724117  0.66969624    -0.04800
C555        C  0.29744577  0.45210447  0.62462043     0.02400
C556        C  0.25591541  0.43899154  0.59063850    -0.04400
C557        C  0.21440822  0.42228510  0.60317777    -0.00600
C558        C  0.21528744  0.41730747  0.64837707    -0.03200
C559        C  0.34102242  0.45944893  0.70408660     0.36100
C560        C  0.17128617  0.40763799  0.57004439     0.39700
C561        C  0.34017707  0.47092608  0.61392857     0.38800
C562        C  0.17376812  0.39786133  0.66075270     0.35800
C563        C  0.25358330  0.49954798  0.74358702     0.36400
C564        C  0.28428486  0.32087319  0.80311512     0.39700
N565        N  0.37439776  0.48602296  0.60576264    -0.38400
N566        N  0.37530142  0.46910287  0.73162524    -0.40000
N567        N  0.13707091  0.39547164  0.54369992    -0.37700
N568        N  0.14094952  0.38169689  0.67052062    -0.40100
N569        N  0.26900093  0.31220710  0.68847042    -0.39900
N570        N  0.29163681  0.28377766  0.81115173    -0.37500
N571        N  0.28986665  0.51393264  0.85966286    -0.38600
N572        N  0.24724251  0.53539314  0.73047983    -0.40200
C573        C  0.27916093  0.22139293  0.97128690    -0.05200
C574        C  0.22956438  0.20954938  0.95740019     0.09000
C575        C  0.19537258  0.24290570  0.94260908    -0.02500
C576        C  0.21118399  0.28700422  0.93811768    -0.00800
C577        C  0.26111621  0.29787501  0.94846205    -0.04400
C578        C  0.29445352  0.26570559  0.96829811     0.02600
C579        C  0.21470715  0.16149662  0.95606325     0.09400
C580        C  0.14425511  0.23148847  0.92995709     0.35300
C581        C  0.34463147  0.27779967  0.98564571     0.38800
C582        C  0.21866629  0.13801649  0.99595121    -0.04800
C583        C  0.21619520  0.09119406  0.99543625     0.02400
C584        C  0.20878196  0.06777234  0.95493797    -0.04400
C585        C  0.19985485  0.09132958  0.91469634    -0.00600
C586        C  0.20340756  0.13810663  0.91525820    -0.03200
C587        C  0.22707049  0.16214889  0.03760927     0.36100
C588        C  0.18810189  0.06744744  0.87274806     0.39700
C589        C  0.22187725  0.06706198  0.03659287     0.38800
C590        C  0.19772818  0.16209948  0.87400383     0.35800
C591        C  0.31491144  0.18745154  0.98592452     0.36400
C592        C  0.17637049  0.32141973  0.92270957     0.39700
N593        N  0.22612875  0.04791201  0.06945944    -0.38400
N594        N  0.23376553  0.18152840  0.07078584    -0.40000
N595        N  0.17810608  0.04872113  0.83908537    -0.37700
N596        N  0.19308090  0.18139465  0.84116977    -0.40100
N597        N  0.10339546  0.22252657  0.91934431    -0.39900
N598        N  0.14915923  0.34940585  0.91078841    -0.37500
N599        N  0.38490638  0.28629101  0.00108089    -0.38600
N600        N  0.34346197  0.16041338  0.99723971    -0.40200
C601        C  0.78198997  0.39285404  0.87251748     0.86800
C602        C  0.75382652  0.42276924  0.89711675    -0.53400
C603        C  0.76329951  0.41638428  0.94207871     0.09700
C604        C  0.80168209  0.38000637  0.95838039     0.20700
C605        C  0.83571038  0.39980480  0.89670862    -0.54200
C606        C  0.84694870  0.39280117  0.94124352     0.09800
C607        C  0.76735188  0.34652043  0.88612513    -0.53700
C608        C  0.77831624  0.33934435  0.93064637     0.10400
H609        H  0.72554406  0.44403879  0.87926106     0.14900
H610        H  0.81055041  0.37311388  0.99433785     0.00600
H611        H  0.86291233  0.40878828  0.87937039     0.15200
H612        H  0.74428144  0.32302277  0.86357965     0.15000
C613        C  0.96124077  0.39993808  0.03960837     0.86800
C614        C  0.99154166  0.42828035  0.01496693    -0.53400
C615        C  0.98345493  0.41929493  0.97058471     0.09700
C616        C  0.94473167  0.38172281  0.95480189     0.20700
C617        C  0.90841308  0.40458608  0.01364889    -0.54200
C618        C  0.89856005  0.39469186  0.96967801     0.09800
C619        C  0.97458626  0.35258184  0.02914802    -0.53700
C620        C  0.96644915  0.34267091  0.98485897     0.10400
H621        H  0.52073032  0.44988070  0.03249864     0.14900
H622        H  0.93744878  0.37378094  0.91916899     0.00600
H623        H  0.88076133  0.41368779  0.02915883     0.15200
H624        H  0.99029882  0.32897271  0.05473098     0.15000
O625        O  0.77257101  0.87075517  0.96040493    -0.72600
O626        O  0.75609942  0.00293844  0.96286528    -0.73600
O627        O  0.76947878  0.93414766  0.02674886    -0.62200
O628        O  0.75935999  0.93935412  0.89653093    -0.70700
O629        O  0.68006245  0.92805425  0.88230610    -0.70200
O630        O  0.69010052  0.92766801  0.01354130    -0.61500
O631        O  0.67628282  0.99360718  0.94678709    -0.74000
O632        O  0.69319204  0.86122946  0.94921685    -0.72700
Cu633      Cu  0.76709044  0.93715561  0.96209566     1.04600
Cu634      Cu  0.68209388  0.92718442  0.94742125     1.04300
C635        C  0.73532460  0.84519489  0.95513357     0.93600
C636        C  0.71382140  0.01902530  0.95489479     0.92700
C637        C  0.73164371  0.93082235  0.04117537     0.84800
C638        C  0.71819966  0.93446622  0.86871685     0.91100
O639        O  0.52222806  0.92345921  0.90267765    -0.72600
O640        O  0.52355021  0.92830379  0.03214027    -0.73600
O641        O  0.52285159  0.85999913  0.96911434    -0.62200
O642        O  0.52442092  0.99270246  0.96578686    -0.70700
O643        O  0.94411262  0.99246165  0.94706371    -0.70200
O644        O  0.94251070  0.85881202  0.95275235    -0.61500
O645        O  0.94374467  0.92946025  0.01391668    -0.74000
O646        O  0.94208235  0.92198106  0.88539958    -0.72700
Cu647      Cu  0.52606258  0.92624242  0.96807883     1.04600
Cu648      Cu  0.94031838  0.92567339  0.94911830     1.04300
C649        C  0.98158037  0.92104701  0.87353945     0.93600
C650        C  0.98378224  0.92978282  0.04366506     0.92700
C651        C  0.98256448  0.83853546  0.96123762     0.84800
C652        C  0.98476471  0.01347008  0.95624516     0.91100
C653        C  0.71261461  0.45721194  0.03970741     0.86800
C654        C  0.65967661  0.44987875  0.01301072    -0.53400
C655        C  0.65014049  0.46083411  0.96934375     0.09700
C656        C  0.69681255  0.47514222  0.95496339     0.20700
C657        C  0.74007355  0.42751603  0.01438913    -0.54200
C658        C  0.73405077  0.43766679  0.97046134     0.09800
C659        C  0.72630658  0.50481344  0.02959399    -0.53700
C660        C  0.71883975  0.51469314  0.98556671     0.10400
H661        H  0.63163053  0.43630060  0.02718020     0.14900
H662        H  0.68989828  0.48335610  0.91944668     0.00600
H663        H  0.76185665  0.40034903  0.03007606     0.15200
H664        H  0.74037810  0.52915517  0.05571513     0.15000
C665        C  0.53265197  0.46377450  0.87314838     0.86800
C666        C  0.58628918  0.45638150  0.89642342    -0.53400
C667        C  0.59860767  0.46273006  0.94119598     0.09700
C668        C  0.55474052  0.47560123  0.95936904     0.20700
C669        C  0.50357340  0.43362262  0.89741208    -0.54200
C670        C  0.51409407  0.43965190  0.94254731     0.09800
C671        C  0.52124865  0.51008251  0.88855441    -0.53700
C672        C  0.53359634  0.51675388  0.93329610     0.10400
H673        H  0.61263670  0.44772113  0.87837753     0.14900
H674        H  0.56468051  0.48203632  0.99540501     0.00600
H675        H  0.97432816  0.41226711  0.87909987     0.15200
H676        H  0.49883672  0.53391061  0.86752291     0.15000
C677        C  0.52001883  0.89441280  0.37592325     0.86800
C678        C  0.48961804  0.92230544  0.39994831    -0.53400
C679        C  0.49866328  0.91554806  0.44476310     0.09700
C680        C  0.53937247  0.88148633  0.46180868     0.20700
C681        C  0.57311934  0.90356986  0.40052028    -0.54200
C682        C  0.58431640  0.89663972  0.44508702     0.09800
C683        C  0.50807154  0.84720605  0.38945380    -0.53700
C684        C  0.51865189  0.83987371  0.43418135     0.10400
H685        H  0.95990942  0.94192886  0.38172879     0.14900
H686        H  0.54814495  0.87561398  0.49794036     0.00600
H687        H  0.60008391  0.91374233  0.38332422     0.15200
H688        H  0.48920530  0.82209237  0.36619674     0.15000
C689        C  0.70189832  0.90622138  0.54150191     0.86800
C690        C  0.72820490  0.93645257  0.51538463    -0.53400
C691        C  0.71898570  0.92691368  0.47107108     0.09700
C692        C  0.68173235  0.88785472  0.45655816     0.20700
C693        C  0.64759203  0.90883330  0.51741089    -0.54200
C694        C  0.63617361  0.89925832  0.47311634     0.09800
C695        C  0.71436007  0.85876849  0.53042570    -0.53700
C696        C  0.70555484  0.84959335  0.48625862     0.10400
H697        H  0.75346716  0.96210457  0.53194642     0.14900
H698        H  0.67329488  0.87884397  0.42098245     0.00600
H699        H  0.62026751  0.91696987  0.53438197     0.15200
H700        H  0.72720158  0.83317035  0.55457626     0.15000
O701        O  0.79674670  0.43944280  0.53179334    -0.72600
O702        O  0.79840130  0.44037148  0.40336187    -0.73600
O703        O  0.79832331  0.50683369  0.46824035    -0.62200
O704        O  0.79734964  0.37372508  0.46709005    -0.70700
O705        O  0.71711213  0.37274688  0.45134443    -0.70200
O706        O  0.71812952  0.50573956  0.44528116    -0.61500
O707        O  0.71817520  0.43582788  0.38423034    -0.74000
O708        O  0.71712658  0.44251543  0.51231909    -0.72700
Cu709      Cu  0.80054594  0.44023908  0.46830834     1.04600
Cu710      Cu  0.71484477  0.43922131  0.44759076     1.04300
C711        C  0.75665104  0.44075823  0.54264105     0.93600
C712        C  0.75838401  0.43732277  0.37356616     0.92700
C713        C  0.75843724  0.52716316  0.45652049     0.84800
C714        C  0.75703632  0.35235902  0.45959997     0.91100
O715        O  0.95952726  0.42341166  0.38186524    -0.72600
O716        O  0.95703630  0.42081564  0.51093971    -0.73600
O717        O  0.95398920  0.48794675  0.44677767    -0.62200
O718        O  0.96205354  0.35487135  0.44621979    -0.70700
O719        O  0.54224023  0.36028041  0.46477697    -0.70200
O720        O  0.53423898  0.49309723  0.46637398    -0.61500
O721        O  0.53680271  0.42471780  0.52922118    -0.74000
O722        O  0.53953384  0.42929638  0.40192091    -0.72700
Cu723      Cu  0.95526140  0.42139298  0.44562815     1.04600
Cu724      Cu  0.54088190  0.42694575  0.46622828     1.04300
C725        C  0.99993036  0.42768171  0.37158409     0.93600
C726        C  0.99715171  0.42314713  0.54074170     0.92700
C727        C  0.99304348  0.51135163  0.45668872     0.84800
C728        C  0.00333441  0.33670940  0.45592319     0.91100
C729        C  0.76792617  0.96752838  0.37242055     0.86800
C730        C  0.82088577  0.95721470  0.39628014    -0.53400
C731        C  0.83295282  0.96463772  0.44091875     0.09700
C732        C  0.79009234  0.98213989  0.45806136     0.20700
C733        C  0.73654262  0.94102197  0.39704003    -0.54200
C734        C  0.74733116  0.94833315  0.44180665     0.09800
C735        C  0.76373179  0.01625144  0.38594826    -0.53700
C736        C  0.77348519  0.02379036  0.43049327     0.10400
H737        H  0.84693500  0.94580156  0.37904267     0.14900
H738        H  0.80008614  0.98931158  0.49397430     0.00600
H739        H  0.70723379  0.91934209  0.37934944     0.15200
H740        H  0.75648028  0.04389334  0.36337435     0.15000
C741        C  0.94228782  0.94835928  0.54105545     0.86800
C742        C  0.88992239  0.94513055  0.51249336    -0.53400
C743        C  0.88320279  0.95880121  0.46988719     0.09700
C744        C  0.93153129  0.97251699  0.45828861     0.20700
C745        C  0.96940998  0.91961923  0.51445711    -0.54200
C746        C  0.96669278  0.93358489  0.47218988     0.09800
C747        C  0.95886799  0.99630456  0.53513603    -0.53700
C748        C  0.95410296  0.00926767  0.49201969     0.10400
H749        H  0.85984711  0.93386284  0.52510142     0.14900
H750        H  0.92680091  0.98276236  0.42352121     0.00600
H751        H  0.48749292  0.88946292  0.52695324     0.15200
H752        H  0.97247303  0.01847819  0.56326200     0.15000
C753        C  0.02908140  0.11726675  0.49539352    -0.05200
C754        C  0.99551217  0.14482658  0.46729700     0.09000
C755        C  0.95082943  0.12637000  0.44325766    -0.02500
C756        C  0.93980729  0.08096757  0.44714000    -0.00800
C757        C  0.97026228  0.05467355  0.48005118    -0.04400
C758        C  0.01566912  0.07326977  0.50353682     0.02600
C759        C  0.00475841  0.19402583  0.46570836     0.09400
C760        C  0.91509303  0.15479875  0.41578953     0.35300
C761        C  0.54821330  0.04766700  0.53723166     0.38800
C762        C  0.00775274  0.21463879  0.42569674    -0.04800
C763        C  0.00684317  0.26138049  0.42213118     0.02400
C764        C  0.00604136  0.28779237  0.45932457    -0.04400
C765        C  0.00663467  0.26734003  0.50011237    -0.00600
C766        C  0.00472231  0.22070269  0.50303413    -0.03200
C767        C  0.51053914  0.18759720  0.38798253     0.36100
C768        C  0.00839354  0.29432571  0.53908147     0.39700
C769        C  0.50487619  0.28211738  0.37987294     0.38800
C770        C  0.00055615  0.20021351  0.54402068     0.35800
C771        C  0.57711985  0.13452989  0.51664812     0.36400
C772        C  0.89698189  0.06267788  0.41661346     0.39700
N773        N  0.50252099  0.29836728  0.34580483    -0.38400
N774        N  0.51258329  0.16598547  0.35782644    -0.40000
N775        N  0.01025472  0.31549896  0.57048185    -0.37700
N776        N  0.99724870  0.18375818  0.57665776    -0.40100
N777        N  0.88704857  0.17797442  0.39414032    -0.39900
N778        N  0.86345706  0.04999643  0.38988368    -0.37500
N779        N  0.57241036  0.02709595  0.56522058    -0.38600
N780        N  0.61556464  0.14820156  0.53336623    -0.40200
C781        C  0.79768092  0.14031790  0.47925748    -0.05200
C782        C  0.75390520  0.16039166  0.45831834     0.09000
C783        C  0.71374180  0.13380822  0.43653780    -0.02500
C784        C  0.71894925  0.08773627  0.43187908    -0.00800
C785        C  0.76469078  0.06833157  0.44795565    -0.04400
C786        C  0.80263381  0.09425665  0.47494470     0.02600
C787        C  0.75149717  0.20975592  0.45751827     0.09400
C788        C  0.66769674  0.15419610  0.41776671     0.35300
C789        C  0.84648440  0.07442720  0.49952788     0.38800
C790        C  0.76580389  0.23334248  0.42378808    -0.04800
C791        C  0.77039660  0.27994572  0.42598459     0.02400
C792        C  0.75641724  0.30336418  0.45971356    -0.04400
C793        C  0.74122050  0.27978758  0.49304038    -0.00600
C794        C  0.73966714  0.23300246  0.49239098    -0.03200
C795        C  0.77505105  0.20951961  0.38647845     0.36100
C796        C  0.73028765  0.30340630  0.52964741     0.39700
C797        C  0.79089248  0.30359260  0.39435549     0.38800
C798        C  0.72723073  0.20870502  0.52816972     0.35800
C799        C  0.83822983  0.16750092  0.50405845     0.36400
C800        C  0.67706667  0.05996383  0.41155333     0.39700
N801        N  0.80815291  0.32224909  0.36961514    -0.38400
N802        N  0.78141674  0.19042019  0.35632935    -0.40000
N803        N  0.72210567  0.32148166  0.55955146    -0.37700
N804        N  0.71779587  0.18941846  0.55701253    -0.40100
N805        N  0.63105940  0.17070946  0.40282528    -0.39900
N806        N  0.64361778  0.03758509  0.39596398    -0.37500
N807        N  0.88201809  0.06126980  0.52171493    -0.38600
N808        N  0.87052136  0.18920712  0.52372002    -0.40200
C809        C  0.78197590  0.74970497  0.47807548    -0.05200
C810        C  0.74571446  0.71808122  0.45855052     0.09000
C811        C  0.69782142  0.73187421  0.44145055    -0.02500
C812        C  0.68603522  0.77639711  0.44575364    -0.00800
C813        C  0.72069435  0.80674644  0.47034854    -0.04400
C814        C  0.76943970  0.79379619  0.48439069     0.02600
C815        C  0.75648050  0.66976372  0.45840713     0.09400
C816        C  0.66007528  0.69967182  0.42133325     0.35300
C817        C  0.80704426  0.82583940  0.50466399     0.38800
C818        C  0.76576361  0.64582381  0.49851525    -0.04800
C819        C  0.76854917  0.59923445  0.49786143     0.02400
C820        C  0.75889210  0.57615440  0.45701599    -0.04400
C821        C  0.74838196  0.59999998  0.41690742    -0.00600
C822        C  0.75034368  0.64674161  0.41778945    -0.03200
C823        C  0.76992122  0.66890113  0.54027763     0.36100
C824        C  0.73200663  0.57676602  0.37479832     0.39700
C825        C  0.77774925  0.57491255  0.53915298     0.38800
C826        C  0.74455466  0.67130108  0.37683829     0.35800
C827        C  0.83188496  0.73655800  0.49293462     0.36400
C828        C  0.63822614  0.79052795  0.42440028     0.39700
N829        N  0.78471969  0.55593577  0.57232192    -0.38400
N830        N  0.77311087  0.68736956  0.57351573    -0.40000
N831        N  0.71742057  0.55876659  0.34103915    -0.37700
N832        N  0.74019427  0.69102853  0.34428840    -0.40100
N833        N  0.63050763  0.67353748  0.40536463    -0.39900
N834        N  0.59997179  0.80079794  0.40562257    -0.37500
N835        N  0.83795121  0.85069092  0.52068378    -0.38600
N836        N  0.87176955  0.72631417  0.50513195    -0.40200
C837        C  0.53749478  0.72501314  0.48436174    -0.05200
C838        C  0.49417908  0.70340375  0.46113555     0.09000
C839        C  0.95525122  0.72869475  0.43756038    -0.02500
C840        C  0.96148156  0.77486580  0.43340916    -0.00800
C841        C  0.50700263  0.79586881  0.45193645    -0.04400
C842        C  0.54319540  0.77142192  0.48110818     0.02600
C843        C  0.49092269  0.65388236  0.45896436     0.09400
C844        C  0.90968227  0.70679952  0.41578337     0.35300
C845        C  0.58622390  0.79327877  0.50800721     0.38800
C846        C  0.97675260  0.62932254  0.49219696    -0.04800
C847        C  0.97563917  0.58250814  0.49053690     0.02400
C848        C  0.49079668  0.56023629  0.45677136    -0.04400
C849        C  0.50490119  0.58481888  0.42351299    -0.00600
C850        C  0.50359815  0.63150943  0.42391651    -0.03200
C851        C  0.96433533  0.65222175  0.52851724     0.36100
C852        C  0.52094941  0.56208697  0.38896798     0.39700
C853        C  0.96033937  0.55721640  0.52430944     0.38800
C854        C  0.51485423  0.65669072  0.38807309     0.35800
C855        C  0.57720314  0.69908115  0.50961061     0.36400
C856        C  0.92118576  0.80092789  0.40975480     0.39700
N857        N  0.94803574  0.53699467  0.55116133    -0.38400
N858        N  0.95482495  0.67032757  0.55781632    -0.40000
N859        N  0.53417532  0.54408567  0.36159587    -0.37700
N860        N  0.52317597  0.67691284  0.35927078    -0.40100
N861        N  0.87336821  0.68923464  0.39845615    -0.39900
N862        N  0.88948067  0.82219248  0.39079113    -0.37500
N863        N  0.62038479  0.80957610  0.53121040    -0.38600
N864        N  0.60900235  0.67835749  0.52943748    -0.40200
C865        C  0.54110611  0.44649454  0.66546551    -0.05200
C866        C  0.50292267  0.42854745  0.68141808     0.09000
C867        C  0.96319559  0.40748620  0.65158355    -0.02500
C868        C  0.96103597  0.40524653  0.60574693    -0.00800
C869        C  0.49848585  0.42486844  0.58922573    -0.04400
C870        C  0.53824754  0.44617005  0.61973302     0.02600
C871        C  0.50375085  0.43582794  0.72922417     0.09400
C872        C  0.92448060  0.38804935  0.66816095     0.35300
C873        C  0.57532313  0.47037840  0.60447382     0.38800
C874        C  0.49992164  0.47927789  0.74411726    -0.04800
C875        C  0.51366301  0.48955093  0.78979982     0.02400
C876        C  0.52183593  0.45492924  0.82217415    -0.04400
C877        C  0.52337258  0.41055565  0.80623127    -0.00600
C878        C  0.51594158  0.40155921  0.76036337    -0.03200
C879        C  0.48454043  0.51425472  0.71178302     0.36100
C880        C  0.53461867  0.37367379  0.83676502     0.39700
C881        C  0.52621791  0.53573296  0.80104766     0.38800
C882        C  0.52254115  0.35715747  0.74517838     0.35800
C883        C  0.58351997  0.46588775  0.69647237     0.36400
C884        C  0.92025697  0.38224664  0.57613984     0.39700
N885        N  0.53601849  0.57293436  0.80850254    -0.38400
N886        N  0.47216513  0.54193662  0.68594879    -0.40000
N887        N  0.54279966  0.34395002  0.86078406    -0.37700
N888        N  0.02811531  0.32180268  0.73304620    -0.40100
N889        N  0.89376405  0.37211036  0.68133294    -0.39900
N890        N  0.88758636  0.36379859  0.55280705    -0.37500
N891        N  0.60483304  0.49004272  0.59261844    -0.38600
N892        N  0.61734340  0.48110533  0.72123116    -0.40200
C893        C  0.69824178  0.45772373  0.16111568    -0.05200
C894        C  0.74202410  0.43972338  0.18487842     0.09000
C895        C  0.77708727  0.42901647  0.16263922    -0.02500
C896        C  0.76905613  0.43761386  0.11686143    -0.00800
C897        C  0.72265113  0.45049931  0.09084214    -0.04400
C898        C  0.68859041  0.46368389  0.11478125     0.02600
C899        C  0.75229949  0.43596044  0.23418539     0.09400
C900        C  0.82206507  0.40990441  0.18732992     0.35300
C901        C  0.64492465  0.48688891  0.09384617     0.38800
C902        C  0.73204924  0.40027236  0.25291939    -0.04800
C903        C  0.73357304  0.40085191  0.29843341     0.02400
C904        C  0.75834651  0.43573780  0.32605464    -0.04400
C905        C  0.78167518  0.46988456  0.30775702    -0.00600
C906        C  0.77761716  0.47056357  0.26171760    -0.03200
C907        C  0.70927228  0.36320891  0.22500975     0.36100
C908        C  0.80734824  0.50572216  0.33585438     0.39700
C909        C  0.70936095  0.36557114  0.31660353     0.38800
C910        C  0.79742371  0.50788857  0.24227814     0.35800
C911        C  0.66347641  0.47139307  0.18505699     0.36400
C912        C  0.81124411  0.43988866  0.09951450     0.39700
N913        N  0.68983599  0.33732679  0.33078073    -0.38400
N914        N  0.69150375  0.33355972  0.20264302    -0.40000
N915        N  0.82768388  0.53427823  0.35842514    -0.37700
N916        N  0.81283951  0.53784682  0.22670052    -0.40100
N917        N  0.85758830  0.39417868  0.20705153    -0.39900
N918        N  0.84620991  0.44265325  0.08759483    -0.37500
N919        N  0.60935276  0.50517360  0.07906608    -0.38600
N920        N  0.63614326  0.48230073  0.20444058    -0.40200
C921        C  0.54479305  0.63257613  0.98269850    -0.05200
C922        C  0.49753574  0.64746466  0.96517599     0.09000
C923        C  0.96014870  0.61673353  0.94599130    -0.02500
C924        C  0.97118504  0.57209027  0.94010687    -0.00800
C925        C  0.51976747  0.55828055  0.95287623    -0.04400
C926        C  0.55558358  0.58784674  0.97753459     0.02600
C927        C  0.48879445  0.69613635  0.96285427     0.09400
C928        C  0.91096366  0.63162670  0.93045422     0.35300
C929        C  0.60371087  0.57317575  0.99752325     0.38800
C930        C  0.49540750  0.72000366  0.92587681    -0.04800
C931        C  0.49373134  0.76665563  0.92558327     0.02400
C932        C  0.48292597  0.78952538  0.96127695    -0.04400
C933        C  0.97542800  0.76563626  0.99788978    -0.00600
C934        C  0.97919250  0.71901434  0.99899598    -0.03200
C935        C  0.50543694  0.69641960  0.88870874     0.36100
C936        C  0.96683728  0.78919035  0.03561418     0.39700
C937        C  0.50519907  0.79110589  0.88939408     0.38800
C938        C  0.97561860  0.69468011  0.03813689     0.35800
C939        C  0.58286200  0.66413861  0.00370998     0.36400
C940        C  0.93281446  0.54036207  0.92037580     0.39700
N941        N  0.51526527  0.81020252  0.86073096    -0.38400
N942        N  0.51322599  0.67738383  0.85912093    -0.40000
N943        N  0.96037583  0.80778535  0.06599718    -0.37700
N944        N  0.97329974  0.67522177  0.06952201    -0.40100
N945        N  0.87173417  0.64364112  0.91803921    -0.39900
N946        N  0.90248840  0.51475141  0.90473320    -0.37500
N947        N  0.64248921  0.56349976  0.01565934    -0.38600
N948        N  0.61285615  0.68973859  0.02012179    -0.40200
C949        C  0.00526708  0.94253482  0.76035333    -0.05200
C950        C  0.96911424  0.91527182  0.73266320     0.09000
C951        C  0.94109845  0.88615116  0.75166459    -0.02500
C952        C  0.94522621  0.88779881  0.79769548    -0.00800
C953        C  0.97972825  0.91690333  0.82547795    -0.04400
C954        C  0.01149782  0.94248451  0.80671177     0.02600
C955        C  0.95922448  0.91920613  0.68328882     0.09400
C956        C  0.90918441  0.85364311  0.72377846     0.35300
C957        C  0.04963967  0.97000628  0.83457937     0.38800
C958        C  0.99143469  0.90183267  0.66101743    -0.04800
C959        C  0.98921142  0.91433157  0.61696951     0.02400
C960        C  0.94849040  0.93754228  0.59118891    -0.04400
C961        C  0.91532185  0.95422269  0.61457559    -0.00600
C962        C  0.92098421  0.94501319  0.66000935    -0.03200
C963        C  0.52661811  0.87038978  0.68405374     0.36100
C964        C  0.87616474  0.98302263  0.59394393     0.39700
C965        C  0.53302080  0.90924527  0.60257851     0.38800
C966        C  0.88746242  0.96248813  0.68338772     0.35800
C967        C  0.03550000  0.97133745  0.74090653     0.36400
C968        C  0.91471581  0.85855816  0.81639553     0.39700
N969        N  0.56888273  0.90531831  0.59246739    -0.38400
N970        N  0.55282269  0.84436944  0.70333442    -0.40000
N971        N  0.84369030  0.00546419  0.57958789    -0.37700
N972        N  0.86081909  0.97607484  0.70222573    -0.40100
N973        N  0.88462460  0.82711242  0.70150931    -0.39900
N974        N  0.39051902  0.83506112  0.83133936    -0.37500
N975        N  0.08016298  0.99197676  0.85664780    -0.38600
N976        N  0.05957750  0.99420549  0.72528242    -0.40200
C977        C  0.49383840  0.95556190  0.26248149    -0.05200
C978        C  0.49301188  0.92066421  0.23224090     0.09000
C979        C  0.50383569  0.87757317  0.24826239    -0.02500
C980        C  0.51423250  0.86883217  0.29415192    -0.00800
C981        C  0.51120795  0.90308924  0.32522304    -0.04400
C982        C  0.50514679  0.94734652  0.30861758     0.02600
C983        C  0.48722986  0.92942226  0.18382204     0.09400
C984        C  0.50617603  0.84217004  0.21709792     0.35300
C985        C  0.51440426  0.98528678  0.33862249     0.38800
C986        C  0.52644149  0.94756236  0.16955182    -0.04800
C987        C  0.52475802  0.94928589  0.12398090     0.02400
C988        C  0.48402300  0.93153490  0.09187328    -0.04400
C989        C  0.94390022  0.91457921  0.10648739    -0.00600
C990        C  0.94554119  0.91393585  0.15213892    -0.03200
C991        C  0.56964936  0.96261528  0.20224738     0.36100
C992        C  0.90164312  0.89533721  0.07531210     0.39700
C993        C  0.56518561  0.96984297  0.11070868     0.38800
C994        C  0.90525737  0.89505166  0.16688214     0.35800
C995        C  0.48395365  0.00028650  0.24598141     0.36400
C996        C  0.53235573  0.82517946  0.30778279     0.39700
N997        N  0.59750720  0.98637433  0.10040039    -0.38400
N998        N  0.60387897  0.97430492  0.22877394    -0.40000
N999        N  0.86793441  0.87971275  0.05072155    -0.37700
N1000       N  0.87335090  0.87951363  0.17859357    -0.40100
N1001       N  0.00771833  0.81407378  0.19213813    -0.39900
N1002       N  0.54588964  0.78953889  0.31615458    -0.37500
N1003       N  0.52204538  0.01566558  0.36237752    -0.38600
N1004       N  0.47602959  0.03593426  0.23278789    -0.40200
C1005       C  0.73716684  0.72612356  0.99521782    -0.05200
C1006       C  0.74703635  0.70272059  0.95942742     0.09000
C1007       C  0.75566546  0.72646508  0.92304156    -0.02500
C1008       C  0.75299834  0.77327767  0.92197478    -0.00800
C1009       C  0.74101479  0.79639986  0.95698541    -0.04400
C1010       C  0.73401543  0.77270658  0.99392866     0.02600
C1011       C  0.74442394  0.65295291  0.95915429     0.09400
C1012       C  0.76649604  0.70264422  0.88646398     0.35300
C1013       C  0.72465843  0.79624473  0.03128773     0.38800
C1014       C  0.70220858  0.63073063  0.93475284    -0.04800
C1015       C  0.69616042  0.58451646  0.93923294     0.02400
C1016       C  0.73075325  0.56033097  0.97069445    -0.04400
C1017       C  0.77502745  0.58226780  0.99221314    -0.00600
C1018       C  0.78164991  0.62831898  0.98651130    -0.03200
C1019       C  0.66342963  0.65608402  0.90704649     0.36100
C1020       C  0.81414012  0.55755459  0.02010122     0.39700
C1021       C  0.65361941  0.56312700  0.91137171     0.38800
C1022       C  0.82579108  0.65101713  0.01052519     0.35800
C1023       C  0.72974530  0.70202931  0.03329225     0.36400
C1024       C  0.76151886  0.79760133  0.88447067     0.39700
N1025       N  0.61958990  0.54813843  0.88696547    -0.38400
N1026       N  0.63244327  0.67638397  0.88527708    -0.40000
N1027       N  0.84546086  0.53805918  0.04244212    -0.37700
N1028       N  0.86070801  0.66950892  0.02983934    -0.40100
N1029       N  0.77495933  0.68370101  0.85712817    -0.39900
N1030       N  0.76843681  0.81707179  0.85463508    -0.37500
N1031       N  0.71769615  0.81438793  0.06167779    -0.38600
N1032       N  0.72419731  0.68261268  0.06366875    -0.40200
C1033       C  0.76469505  0.90668571  0.26249320    -0.05200
C1034       C  0.74647403  0.93947556  0.23096332     0.09000
C1035       C  0.72698234  0.97803727  0.24411761    -0.02500
C1036       C  0.72804035  0.98498952  0.28902326    -0.00800
C1037       C  0.75443417  0.95613156  0.32221327    -0.04400
C1038       C  0.76745573  0.91441620  0.30775510     0.02600
C1039       C  0.74493367  0.93297871  0.18314910     0.09400
C1040       C  0.70495423  0.01036880  0.21097642     0.35300
C1041       C  0.78021540  0.87820690  0.33885455     0.38800
C1042       C  0.70411382  0.91262280  0.15424758    -0.04800
C1043       C  0.69944198  0.91184689  0.10807756     0.02400
C1044       C  0.73627881  0.93107879  0.09029458    -0.04400
C1045       C  0.77764925  0.95109302  0.12009113    -0.00600
C1046       C  0.78178895  0.95177718  0.16613724    -0.03200
C1047       C  0.66643311  0.89304707  0.17224213     0.36100
C1048       C  0.81516195  0.97346429  0.10389978     0.39700
C1049       C  0.65635429  0.89109379  0.07949733     0.38800
C1050       C  0.82366073  0.97286038  0.19629007     0.35800
C1051       C  0.78061212  0.86508372  0.24828632     0.36400
C1052       C  0.69539532  0.01729230  0.29873846     0.39700
N1053       N  0.62185982  0.87439101  0.05707670    -0.38400
N1054       N  0.63654791  0.87730424  0.18667679    -0.40000
N1055       N  0.84512075  0.99156250  0.09129165    -0.37700
N1056       N  0.85705192  0.98951256  0.22038871    -0.40100
N1057       N  0.68751054  0.03603974  0.18446138    -0.39900
N1058       N  0.66853245  0.04302188  0.30522501    -0.37500
N1059       N  0.78887442  0.84920951  0.36370055    -0.38600
N1060       N  0.79324354  0.83184873  0.23695775    -0.40200
C1061       C  0.68702452  0.90338314  0.74591970    -0.05200
C1062       C  0.71252906  0.93664865  0.72878346     0.09000
C1063       C  0.73919379  0.96972053  0.75743406    -0.02500
C1064       C  0.74199910  0.96847524  0.80325283    -0.00800
C1065       C  0.71499896  0.93606276  0.82029805    -0.04400
C1066       C  0.68649975  0.90413054  0.79102471     0.02600
C1067       C  0.71570010  0.93350696  0.68165313     0.09400
C1068       C  0.76471949  0.00451182  0.73991163     0.35300
C1069       C  0.65875862  0.87038683  0.80756900     0.38800
C1070       C  0.69094478  0.96298976  0.64903448    -0.04800
C1071       C  0.69226450  0.95728181  0.60441421     0.02400
C1072       C  0.71372687  0.91933830  0.59126822    -0.04400
C1073       C  0.74614984  0.89566658  0.62531515    -0.00600
C1074       C  0.74526141  0.90132483  0.66996455    -0.03200
C1075       C  0.66342500  0.99852175  0.66116123     0.36100
C1076       C  0.78547518  0.87103505  0.61634650     0.39700
C1077       C  0.67570306  0.99225475  0.57267097     0.38800
C1078       C  0.77422486  0.87352295  0.70419544     0.35800
C1079       C  0.66473459  0.86639516  0.71764366     0.36400
C1080       C  0.77314401  0.00052919  0.83266234     0.39700
N1081       N  0.66460356  0.02015120  0.54683686    -0.38400
N1082       N  0.64147869  0.02688484  0.67091620    -0.40000
N1083       N  0.81757125  0.85158429  0.61021768    -0.37700
N1084       N  0.79618611  0.85126449  0.73200992    -0.40100
N1085       N  0.78447441  0.03273540  0.72593309    -0.39900
N1086       N  0.79838146  0.02589116  0.85601153    -0.37500
N1087       N  0.63645811  0.84362058  0.82075670    -0.38600
N1088       N  0.64901235  0.83648258  0.69477129    -0.40200
C1089       C  0.53500791  0.40906889  0.26283623    -0.05200
C1090       C  0.99828123  0.43193178  0.23253956     0.09000
C1091       C  0.96528676  0.45705654  0.24866537    -0.02500
C1092       C  0.96716375  0.45710547  0.29429027    -0.00800
C1093       C  0.00101947  0.43091913  0.32411187    -0.04400
C1094       C  0.53619522  0.40820444  0.30836537     0.02600
C1095       C  0.99010418  0.42461789  0.18352857     0.09400
C1096       C  0.92862862  0.48211990  0.21806142     0.35300
C1097       C  0.57245263  0.38240392  0.33853785     0.38800
C1098       C  0.96961544  0.38388481  0.16490910    -0.04800
C1099       C  0.95664583  0.37748928  0.11856491     0.02400
C1100       C  0.96854251  0.41014605  0.08983681    -0.04400
C1101       C  0.98360730  0.45297388  0.10865651    -0.00600
C1102       C  0.99664947  0.45932830  0.15523201    -0.03200
C1103       C  0.96087751  0.34842956  0.19369388     0.36100
C1104       C  0.97949900  0.49205105  0.08092552     0.39700
C1105       C  0.92639996  0.33901337  0.10140662     0.38800
C1106       C  0.51599087  0.50196439  0.17414218     0.35800
C1107       C  0.57051339  0.38512687  0.24670255     0.36400
C1108       C  0.93581306  0.48599160  0.31072419     0.39700
N1109       N  0.90158106  0.30807915  0.09035454    -0.38400
N1110       N  0.95447011  0.32009139  0.21669297    -0.40000
N1111       N  0.47593039  0.52340704  0.05911311    -0.37700
N1112       N  0.53125338  0.53604598  0.18920144    -0.40100
N1113       N  0.89979026  0.50220622  0.19336206    -0.39900
N1114       N  0.91160904  0.50993466  0.32386524    -0.37500
N1115       N  0.60109553  0.36191410  0.36300481    -0.38600
N1116       N  0.59863050  0.36582400  0.23371654    -0.40200
C1117       C  0.99542555  0.13290784  0.92085718    -0.05200
C1118       C  0.99258438  0.15628321  0.95940367     0.09000
C1119       C  0.98677825  0.13244356  0.99678190    -0.02500
C1120       C  0.98500314  0.08565088  0.99593119    -0.00800
C1121       C  0.98629303  0.06249648  0.95690755    -0.04400
C1122       C  0.99025895  0.08626059  0.91905143     0.02600
C1123       C  0.99071797  0.20591837  0.95931900     0.09400
C1124       C  0.98102223  0.15612421  0.03560425     0.35300
C1125       C  0.48604941  0.06300995  0.87744237     0.38800
C1126       C  0.94952852  0.22691860  0.93354678    -0.04800
C1127       C  0.94484522  0.27309410  0.93702537     0.02400
C1128       C  0.97903095  0.29822708  0.96922911    -0.04400
C1129       C  0.02291311  0.27800799  0.99109510    -0.00600
C1130       C  0.02852899  0.23193500  0.98646064    -0.03200
C1131       C  0.91027129  0.20059531  0.90547063     0.36100
C1132       C  0.56268388  0.30473213  0.01759696     0.39700
C1133       C  0.90342990  0.29360690  0.90849668     0.38800
C1134       C  0.57244473  0.21092597  0.01068226     0.35800
C1135       C  0.50283893  0.15692043  0.88277205     0.36400
C1136       C  0.98090520  0.06136519  0.03498952     0.39700
N1137       N  0.87030914  0.30915509  0.88469247    -0.38400
N1138       N  0.87893373  0.17966840  0.88317278    -0.40000
N1139       N  0.59444449  0.32620684  0.03853899    -0.37700
N1140       N  0.60746349  0.19411474  0.03001812    -0.40100
N1141       N  0.97628357  0.17513564  0.06643814    -0.39900
N1142       N  0.97761155  0.04229535  0.06630213    -0.37500
N1143       N  0.48127696  0.04507573  0.84371310    -0.38600
N1144       N  0.50874294  0.17605714  0.85236738    -0.40200
C1145       C  0.76128076  0.45446766  0.75977576    -0.05200
C1146       C  0.76003067  0.41970113  0.72939753     0.09000
C1147       C  0.76672507  0.37594934  0.74477864    -0.02500
C1148       C  0.77363988  0.36651045  0.79031135    -0.00800
C1149       C  0.77335377  0.40133622  0.82179283    -0.04400
C1150       C  0.77080149  0.44584113  0.80566745     0.02600
C1151       C  0.75708760  0.42932909  0.68165606     0.09400
C1152       C  0.76801666  0.34043530  0.71340661     0.35300
C1153       C  0.78139047  0.48357420  0.83589084     0.38800
C1154       C  0.79785515  0.44723380  0.66970627    -0.04800
C1155       C  0.79745955  0.45211546  0.62463577     0.02400
C1156       C  0.75593384  0.43901945  0.59064078    -0.04400
C1157       C  0.71441670  0.42230976  0.60316292    -0.00600
C1158       C  0.71527556  0.41733093  0.64835802    -0.03200
C1159       C  0.84102605  0.45940452  0.70410889     0.36100
C1160       C  0.67130894  0.40765145  0.57001712     0.39700
C1161       C  0.84020315  0.47093351  0.61396395     0.38800
C1162       C  0.67373928  0.39790106  0.66071772     0.35800
C1163       C  0.75355745  0.49954485  0.74358499     0.36400
C1164       C  0.78429185  0.32086875  0.80309594     0.39700
N1165       N  0.87443478  0.48602670  0.60581558    -0.38400
N1166       N  0.87530952  0.46902641  0.73165619    -0.40000
N1167       N  0.63710573  0.39547332  0.54366447    -0.37700
N1168       N  0.64090629  0.38175165  0.67047370    -0.40100
N1169       N  0.76892302  0.31220563  0.68843725    -0.39900
N1170       N  0.79166665  0.28377653  0.81113218    -0.37500
N1171       N  0.78985931  0.51391738  0.85966182    -0.38600
N1172       N  0.74721503  0.53539181  0.73048342    -0.40200
C1173       C  0.77918009  0.22137430  0.97126415    -0.05200
C1174       C  0.72957879  0.20954292  0.95740215     0.09000
C1175       C  0.69539187  0.24290761  0.94263224    -0.02500
C1176       C  0.71120980  0.28700245  0.93813543    -0.00800
C1177       C  0.76114343  0.29786286  0.94846047    -0.04400
C1178       C  0.79447983  0.26568544  0.96827883     0.02600
C1179       C  0.71470752  0.16149421  0.95606801     0.09400
C1180       C  0.64427105  0.23150205  0.93000389     0.35300
C1181       C  0.84466150  0.27777133  0.98562075     0.38800
C1182       C  0.71868145  0.13801220  0.99595696    -0.04800
C1183       C  0.71618341  0.09119055  0.99543626     0.02400
C1184       C  0.70873720  0.06777214  0.95493295    -0.04400
C1185       C  0.69979575  0.09133330  0.91469315    -0.00600
C1186       C  0.70336955  0.13810934  0.91525958    -0.03200
C1187       C  0.72713092  0.16214052  0.03762104     0.36100
C1188       C  0.68801028  0.06745585  0.87274183     0.39700
C1189       C  0.72186910  0.06705540  0.03659155     0.38800
C1190       C  0.69767513  0.16210561  0.87400547     0.35800
C1191       C  0.81492567  0.18742266  0.98587056     0.36400
C1192       C  0.67640113  0.32142429  0.92273808     0.39700
N1193       N  0.72612129  0.04790332  0.06945700    -0.38400
N1194       N  0.73386425  0.18151644  0.07080273    -0.40000
N1195       N  0.67799013  0.04873344  0.83907705    -0.37700
N1196       N  0.69301647  0.18140440  0.84117226    -0.40100
N1197       N  0.60340866  0.22254915  0.91940877    -0.39900
N1198       N  0.64919381  0.34941494  0.91082402    -0.37500
N1199       N  0.88493850  0.28625474  0.00105656    -0.38600
N1200       N  0.84347225  0.16037629  0.99715898    -0.40200
loop_ 
_geom_bond_atom_site_label_1 
_geom_bond_atom_site_label_2 
_geom_bond_distance 
_geom_bond_site_symmetry_2 
_ccdc_geom_bond_type 
C1            C2   1.549       .  S
C1            C7   1.540       .  S
C1            C5   1.539       .  S
C1          C549   1.559       .  S
C2            H9   1.082       .  S
C2            C3   1.373       .  D
C3            C4   1.561       .  S
C3           C58   1.516       .  S
C4            C8   1.536       .  S
C4            C6   1.564       .  S
C4           H10   1.105       .  S
C5           H11   1.086       .  S
C5            C6   1.361       .  D
C6           C18   1.516       .  S
C7           H12   1.082       .  S
C7            C8   1.361       .  D
C8          C577   1.492       .  S
C13          C14   1.544       .  S
C13          C19   1.541       .  S
C13          C17   1.531       .  S
C13         C500   1.555       .  S
C14         H621   1.078       .  S
C14          C15   1.369   1_554  D
C15          C16   1.554       .  S
C15         C670   1.511       .  S
C16          C20   1.545       .  S
C16          C18   1.566       .  S
C16          H22   1.101       .  S
C17          H23   1.068       .  S
C17          C18   1.358   1_554  D
C19          H24   1.085       .  S
C19          C20   1.371   1_554  D
C20         C528   1.507       .  S
H21         C614   1.078   1_455  S
O25         Cu33   2.012       .  S
O25          C35   1.277       .  A
O26         Cu33   2.015   1_545  S
O26          C36   1.278       .  A
O27         Cu33   2.002   1_554  S
O27          C37   1.277       .  A
O28         Cu33   2.000       .  S
O28          C38   1.277       .  A
O29         Cu34   2.016       .  S
O29          C38   1.279       .  A
O30         Cu34   2.015   1_554  S
O30          C37   1.279       .  A
O31         Cu34   2.012       .  S
O31          C36   1.276   1_565  A
O32         Cu34   2.018       .  S
O32          C35   1.279       .  A
Cu33        Cu34   2.370       .  S
C35         C409   1.483       .  S
C36         C584   1.480       .  S
C37         C444   1.503       .  S
C38         C465   1.490       .  S
O39         Cu47   2.015       .  S
O39         C649   1.279   1_455  A
O40         Cu47   2.018   1_554  S
O40         C650   1.280   1_455  A
O41         Cu47   1.997       .  S
O41         C651   1.275   1_455  A
O42         Cu47   2.005       .  S
O42         C652   1.276   1_465  A
O43         Cu48   2.015       .  S
O43          C52   1.278   1_565  A
O44         Cu48   2.020       .  S
O44          C51   1.279       .  A
O45         Cu48   2.000   1_554  S
O45          C50   1.276       .  A
O46         Cu48   2.003       .  S
O46          C49   1.277       .  A
Cu47       Cu648   2.372   1_455  S
Cu48       Cu647   2.372       .  S
C49         O639   1.279       .  A
C49         C353   1.491       .  S
C50         O640   1.280       .  A
C50         C988   1.502       .  S
C51         O641   1.275       .  A
C51         C932   1.477       .  S
C52         O642   1.276   1_545  A
C52         C521   1.477       .  S
C53          C54   1.542       .  S
C53          C59   1.533       .  S
C53          C57   1.546       .  S
C53         C297   1.560       .  S
C54          H61   1.084       .  S
C54          C55   1.361   1_554  D
C55          C56   1.566       .  S
C55          C67   1.513       .  S
C56          C60   1.544       .  S
C56          C58   1.561       .  S
C56          H62   1.103       .  S
C57          H63   1.080       .  S
C57          C58   1.372   1_554  D
C59          H64   1.086       .  S
C59          C60   1.368   1_554  D
C60         C416   1.512       .  S
C65          C66   1.542       .  S
C65          C71   1.544       .  S
C65          C69   1.543       .  S
C65         C276   1.561       .  S
C66          H73   1.086       .  S
C66          C67   1.361       .  D
C67          C68   1.560       .  S
C68          C72   1.533       .  S
C68          C70   1.559       .  S
C68          H74   1.102       .  S
C69         H675   1.082   1_455  S
C69          C70   1.372       .  D
C70         C615   1.511   1_455  S
C71          H76   1.079   1_455  S
C71          C72   1.362       .  D
C72         C325   1.496       .  S
H75         C669   1.082       .  S
C77          C78   1.546   1_455  S
C77          C83   1.540       .  S
C77          C81   1.536       .  S
C77         C381   1.559       .  S
C78         H685   1.082       .  S
C78          C79   1.371       .  D
C79          C80   1.560   1_655  S
C79         C746   1.512       .  S
C80          C84   1.539       .  S
C80          C82   1.567       .  S
C80          H86   1.105       .  S
C81          H87   1.086       .  S
C81          C82   1.361       .  D
C82          C94   1.518       .  S
C83          H88   1.081   1_455  S
C83          C84   1.369       .  D
C84         C241   1.501       .  S
H85         C678   1.082       .  S
C89          C90   1.532       .  S
C89          C95   1.541       .  S
C89          C93   1.548       .  S
C89         C472   1.550       .  S
C90          H97   1.081       .  S
C90          C91   1.367       .  D
C91          C92   1.556       .  S
C91         C134   1.505       .  S
C92          C96   1.539       .  S
C92          C94   1.565       .  S
C92          H98   1.105       .  S
C93          H99   1.083       .  S
C93          C94   1.364       .  D
C95         H100   1.082       .  S
C95          C96   1.362       .  D
C96         C213   1.495       .  S
O101       Cu109   2.010       .  S
O101        C111   1.278       .  A
O102       Cu109   2.010       .  S
O102        C112   1.278       .  A
O103       Cu109   2.009       .  S
O103        C113   1.277       .  A
O104       Cu109   2.004       .  S
O104        C114   1.276       .  A
O105       Cu110   2.008       .  S
O105        C114   1.277       .  A
O106       Cu110   2.007       .  S
O106        C113   1.277       .  A
O107       Cu110   2.005       .  S
O107        C112   1.277       .  A
O108       Cu110   2.005       .  S
O108        C111   1.277       .  A
Cu109      Cu110   2.371       .  S
C111        C556   1.503       .  S
C112        C304   1.482       .  S
C113        C220   1.476       .  S
C114        C192   1.476       .  S
O115       Cu123   2.024       .  S
O115        C125   1.281       .  A
O116       Cu123   2.024       .  S
O116        C126   1.279       .  A
O117       Cu123   2.007       .  S
O117        C127   1.277       .  A
O118       Cu123   2.018       .  S
O118        C128   1.278       .  A
O119       Cu124   2.011       .  S
O119        C728   1.276       .  A
O120       Cu124   2.007       .  S
O120        C727   1.277   1_455  A
O121       Cu124   1.998       .  S
O121        C726   1.277   1_455  A
O122       Cu124   1.997       .  S
O122        C725   1.276   1_455  A
Cu123      Cu724   2.371       .  S
Cu124      Cu723   2.371   1_455  S
C125        O722   1.276       .  A
C125        C493   1.492       .  S
C126        O721   1.277       .  A
C126        C869   1.502       .  S
C127        O720   1.277       .  A
C127        C848   1.476       .  S
C128        O719   1.276       .  A
C128        C164   1.481       .  S
C129        C130   1.547       .  S
C129        C135   1.543   1_565  S
C129        C133   1.535       .  S
C129        C437   1.549       .  S
C130        H137   1.086       .  S
C130        C131   1.362       .  D
C131        C132   1.560       .  S
C131        C143   1.504       .  S
C132        C136   1.537   1_565  S
C132        C134   1.555       .  S
C132        H138   1.102       .  S
C133        H139   1.083       .  S
C133        C134   1.366       .  D
C135        H140   1.080       .  S
C135        C136   1.362       .  D
C136        C185   1.498       .  S
C141        C142   1.536       .  S
C141        C147   1.537       .  S
C141        C145   1.549       .  S
C141        C360   1.563       .  S
C142        H149   1.083       .  S
C142        C143   1.359       .  D
C143        C144   1.564       .  S
C144        C148   1.538   1_565  S
C144        C146   1.552       .  S
C144        H150   1.103       .  S
C145        H751   1.078       .  S
C145        C146   1.368       .  D
C146        C679   1.512       .  S
C147        H152   1.086   1_565  S
C147        C148   1.374   1_565  D
C148        C157   1.512       .  S
H151        C745   1.078       .  S
C153        C154   1.410       .  A
C153        C158   1.414       .  A
C153        C771   1.449       .  S
C154        C159   1.503       .  S
C154        C155   1.408       .  A
C155        C156   1.410       .  A
C155        C160   1.452       .  S
C156        C157   1.420       .  A
C156        C172   1.443       .  S
C157        C158   1.421       .  A
C158        C761   1.448       .  S
C159        C162   1.416       .  A
C159        C166   1.414       .  A
C160        N177   1.156       .  T
C161        C758   1.448       .  S
C161        N179   1.156       .  T
C162        C163   1.413       .  A
C162        C767   1.451       .  S
C163        C164   1.411       .  A
C163        C769   1.450       .  S
C164        C165   1.410       .  A
C165        C166   1.409       .  A
C165        C168   1.450       .  S
C166        C170   1.451       .  S
C167        C762   1.451       .  S
C167        N174   1.157       .  T
C168        N175   1.157       .  T
C169        C763   1.450       .  S
C169        N173   1.157       .  T
C170        N176   1.157       .  T
C171        C753   1.449       .  S
C171        N180   1.157       .  T
C172        N178   1.155       .  T
C181        C182   1.407       .  A
C181        C186   1.408       .  A
C181        C199   1.453       .  S
C182        C187   1.491       .  S
C182        C183   1.408       .  A
C183        C184   1.411       .  A
C183        C188   1.449       .  S
C184        C185   1.417       .  A
C184        C200   1.450       .  S
C185        C186   1.411       .  A
C186        C189   1.436       .  S
C187        C190   1.410       .  A
C187        C194   1.409       .  A
C188        N205   1.157       .  T
C189        N207   1.153       .  T
C190        C191   1.408       .  A
C190        C195   1.450       .  S
C191        C192   1.411       .  A
C191        C197   1.451       .  S
C192        C193   1.412       .  A
C193        C194   1.410       .  A
C193        C196   1.448       .  S
C194        C198   1.450       .  S
C195        N202   1.157       .  T
C196        N203   1.156       .  T
C197        N201   1.157       .  T
C198        N204   1.157       .  T
C199        N208   1.157       .  T
C200        N206   1.157       .  T
C209        C210   1.409       .  A
C209        C214   1.411       .  A
C209        C227   1.449       .  S
C210        C215   1.495       .  S
C210        C211   1.410       .  A
C211        C212   1.405       .  A
C211        C216   1.451       .  S
C212        C213   1.406       .  A
C212        C228   1.435       .  S
C213        C214   1.415       .  A
C214        C217   1.447       .  S
C215        C218   1.413       .  A
C215        C222   1.412       .  A
C216        N233   1.156       .  T
C217        N235   1.156       .  T
C218        C219   1.408       .  A
C218        C223   1.452       .  S
C219        C220   1.411       .  A
C219        C225   1.450       .  S
C220        C221   1.411       .  A
C221        C222   1.408       .  A
C221        C224   1.449       .  S
C222        C226   1.451       .  S
C223        N230   1.157       .  T
C224        N231   1.157       .  T
C225        N229   1.157       .  T
C226        N232   1.157       .  T
C227        N236   1.156       .  T
C228        N234   1.151       .  T
C237        C238   1.410   1_455  A
C237        C242   1.411       .  A
C237        C255   1.451       .  S
C238        C243   1.493       .  S
C238        C839   1.408       .  A
C239        C240   1.409       .  A
C239        C838   1.408       .  A
C239        C244   1.451       .  S
C240        C841   1.417       .  A
C240        C256   1.449       .  S
C241        C242   1.413       .  A
C241        C840   1.417   1_455  A
C242        C245   1.445       .  S
C243        C250   1.411   1_655  A
C243        C846   1.411       .  A
C244        N261   1.157       .  T
C245        N263   1.156       .  T
C246        C247   1.411       .  A
C246        C843   1.411       .  A
C246        C251   1.449       .  S
C247        C848   1.412       .  A
C247        C253   1.451       .  S
C248        C727   1.476       .  S
C248        C249   1.411   1_655  A
C248        C847   1.412       .  A
C249        C250   1.408       .  A
C249        C252   1.451       .  S
C250        C254   1.451       .  S
C251        N258   1.157       .  T
C252        N259   1.157       .  T
C253        N257   1.157       .  T
C254        N260   1.157       .  T
C255        N264   1.157       .  T
C256        N262   1.156       .  T
C265        C266   1.410       .  A
C265        C270   1.407       .  A
C265        C283   1.454       .  S
C266        C271   1.500       .  S
C266        C867   1.410   1_455  A
C267        C268   1.416       .  A
C267        C866   1.410       .  A
C267        C272   1.451       .  S
C268        C869   1.423       .  A
C268        C284   1.451       .  S
C269        C726   1.502       .  S
C269        C270   1.422   1_655  A
C269        C868   1.423       .  A
C270        C273   1.453       .  S
C271        C274   1.405   1_455  A
C271        C278   1.406       .  A
C272        N289   1.157       .  T
C273        N291   1.157       .  T
C274        C275   1.409   1_655  A
C274        C279   1.455       .  S
C275        C276   1.434       .  A
C275        C281   1.449       .  S
C276        C277   1.431       .  A
C277        C278   1.416       .  A
C277        C280   1.452       .  S
C278        C282   1.451       .  S
C279        N286   1.157       .  T
C280        N287   1.157       .  T
C281        N285   1.158       .  T
C282        N888   1.157       .  T
C283        N292   1.157       .  T
C284        N290   1.157       .  T
N288        C882   1.157       .  T
C293        C294   1.404       .  A
C293        C298   1.412       .  A
C293        C311   1.455       .  S
C294        C299   1.494       .  S
C294        C295   1.401       .  A
C295        C296   1.412       .  A
C295        C300   1.452       .  S
C296        C297   1.430       .  A
C296        C312   1.445       .  S
C297        C298   1.434       .  A
C298        C301   1.449       .  S
C299        C302   1.408       .  A
C299        C306   1.412       .  A
C300        N317   1.157       .  T
C301        N319   1.157       .  T
C302        C303   1.409       .  A
C302        C307   1.450       .  S
C303        C304   1.414       .  A
C303        C309   1.450       .  S
C304        C305   1.413       .  A
C305        C306   1.410       .  A
C305        C308   1.451       .  S
C306        C310   1.450       .  S
C307        N314   1.157       .  T
C308        N315   1.158       .  T
C309        N313   1.157       .  T
C310        N316   1.157       .  T
C311        N320   1.157       .  T
C312        N318   1.155       .  T
C321        C322   1.407   1_455  A
C321        C326   1.408       .  A
C321        C339   1.452   1_556  S
C322        C327   1.492       .  S
C322        C923   1.408       .  A
C323        C324   1.411       .  A
C323        C922   1.408       .  A
C323        C328   1.449       .  S
C324        C925   1.416       .  A
C324        C340   1.450       .  S
C325        C326   1.410       .  A
C325        C924   1.416   1_455  A
C326        C329   1.439       .  S
C327        C330   1.411       .  A
C327        C934   1.410       .  A
C328        N345   1.157       .  T
C329        N347   1.154   1_556  T
C330        C331   1.408       .  A
C330        C335   1.452   1_655  S
C331        C332   1.412       .  A
C331        C337   1.451   1_655  S
C332        C651   1.477       .  S
C332        C933   1.412       .  A
C333        C334   1.411       .  A
C333        C932   1.412       .  A
C333        C336   1.450   1_556  S
C334        C927   1.410       .  A
C334        C338   1.449   1_556  S
C335        N342   1.157       .  T
C336        N343   1.157       .  T
C337        N341   1.157       .  T
C338        N344   1.157       .  T
C339        N348   1.157       .  T
C340        N346   1.157       .  T
C349        C350   1.412       .  A
C349        C354   1.410       .  A
C349        C367   1.452       .  S
C350        C355   1.498       .  S
C350        C351   1.406       .  A
C351        C352   1.410       .  A
C351        C356   1.449       .  S
C352        C353   1.420       .  A
C352        C368   1.452       .  S
C353        C354   1.417       .  A
C354        C357   1.451       .  S
C355        C358   1.398       .  A
C355        C362   1.401       .  A
C356        N373   1.157       .  T
C357        N375   1.157       .  T
C358        C359   1.411       .  A
C358        C963   1.448       .  S
C359        C360   1.433       .  A
C359        C965   1.447       .  S
C360        C361   1.436       .  A
C361        C362   1.413       .  A
C361        C364   1.449       .  S
C362        C366   1.452       .  S
C363        C958   1.448   1_455  S
C363        N370   1.156       .  T
C364        N371   1.157   1_565  T
C365        C959   1.447   1_455  S
C365        N369   1.157       .  T
C366        N372   1.156       .  T
C367        N376   1.157       .  T
C368        N974   1.158       .  T
N374        C968   1.158       .  T
C377        C378   1.407       .  A
C377        C382   1.415   1_655  A
C377        C395   1.451   1_565  S
C378        C383   1.500       .  S
C378        C379   1.405   1_655  A
C379        C380   1.411       .  A
C379        C384   1.456       .  S
C380        C381   1.434       .  A
C380        C396   1.449       .  S
C381        C382   1.430       .  A
C382        C385   1.452       .  S
C383        C386   1.409   1_655  A
C383        C990   1.409       .  A
C384       N1001   1.157       .  T
C385        N403   1.158   1_565  T
C386        C387   1.410       .  A
C386        C391   1.450       .  S
C387        C388   1.421   1_455  A
C387        C393   1.452       .  S
C388        C650   1.502       .  S
C388        C989   1.425       .  A
C389        C390   1.412       .  A
C389        C988   1.425       .  A
C389        C392   1.452       .  S
C390        C983   1.409       .  A
C390        C394   1.452       .  S
C391        N398   1.156       .  T
C392        N399   1.158       .  T
C393        N397   1.158       .  T
C394        N400   1.157       .  T
C395        N404   1.157       .  T
C396        N402   1.157       .  T
N401        C984   1.157       .  T
C405        C406   1.411       .  A
C405        C410   1.409       .  A
C405        C423   1.451   1_556  S
C406        C411   1.500       .  S
C406        C407   1.414       .  A
C407        C408   1.414       .  A
C407        C412   1.449       .  S
C408        C409   1.412       .  A
C408        C424   1.451       .  S
C409        C410   1.411       .  A
C410        C413   1.448   1_556  S
C411        C414   1.407       .  A
C411        C418   1.409       .  A
C412        N429   1.157       .  T
C413        N431   1.156       .  T
C414        C415   1.411       .  A
C414        C419   1.453       .  S
C415        C416   1.418       .  A
C415        C421   1.440       .  S
C416        C417   1.421       .  A
C417        C418   1.414       .  A
C417        C420   1.451   1_556  S
C418        C422   1.449   1_556  S
C419        N426   1.157       .  T
C420        N427   1.157       .  T
C421        N425   1.154       .  T
C422        N428   1.157       .  T
C423        N432   1.157       .  T
C424        N430   1.157       .  T
C433        C434   1.407       .  A
C433        C438   1.412       .  A
C433        C451   1.450       .  S
C434        C439   1.493       .  S
C434        C435   1.405       .  A
C435        C436   1.408       .  A
C435        C440   1.453   1_565  S
C436        C437   1.425       .  A
C436        C452   1.448   1_565  S
C437        C438   1.424       .  A
C438        C441   1.451       .  S
C439        C442   1.407       .  A
C439        C446   1.406       .  A
C440        N457   1.157       .  T
C441        N459   1.157       .  T
C442        C443   1.411       .  A
C442        C447   1.452       .  S
C443        C444   1.424       .  A
C443        C449   1.452       .  S
C444        C445   1.425       .  A
C445        C446   1.410       .  A
C445        C448   1.452       .  S
C446        C450   1.453       .  S
C447        N454   1.157       .  T
C448        N455   1.158       .  T
C449        N453   1.158       .  T
C450        N456   1.157       .  T
C451        N460   1.157       .  T
C452        N458   1.157       .  T
C461        C462   1.411       .  A
C461        C466   1.410       .  A
C461        C479   1.450       .  S
C462        C467   1.498       .  S
C462        C463   1.410       .  A
C463        C464   1.411       .  A
C463        C468   1.450   1_565  S
C464        C465   1.419       .  A
C464        C480   1.452   1_565  S
C465        C466   1.416       .  A
C466        C469   1.451       .  S
C467        C470   1.410       .  A
C467        C474   1.408       .  A
C468        N485   1.157       .  T
C469        N487   1.157       .  T
C470        C471   1.412       .  A
C470        C475   1.449       .  S
C471        C472   1.419       .  A
C471        C477   1.449       .  S
C472        C473   1.423       .  A
C473        C474   1.409       .  A
C473        C476   1.447       .  S
C474        C478   1.452       .  S
C475        N482   1.157   1_565  T
C476        N483   1.157       .  T
C477        N481   1.157   1_565  T
C478        N484   1.157       .  T
C479        N488   1.157       .  T
C480        N486   1.158       .  T
C489        C494   1.411       .  A
C489       C1090   1.412   1_455  A
C489        C507   1.449       .  S
C490        C495   1.501       .  S
C490        C491   1.412       .  A
C490       C1089   1.412       .  A
C491        C492   1.410       .  A
C491        C496   1.452       .  S
C492        C493   1.415       .  A
C492        C508   1.448       .  S
C493       C1094   1.416       .  A
C494       C1093   1.416       .  A
C494        C497   1.451       .  S
C495        C498   1.407       .  A
C495        C502   1.409       .  A
C496        N513   1.157       .  T
C497        N515   1.157       .  T
C498        C499   1.408       .  A
C498        C503   1.455       .  S
C499        C500   1.425       .  A
C499        C505   1.448       .  S
C500        C501   1.428       .  A
C501        C502   1.415       .  A
C501        C504   1.451       .  S
C502       C1106   1.451       .  S
C503        N510   1.157       .  T
C504       N1111   1.158       .  T
C505        N509   1.156       .  T
C506       C1102   1.451   1_455  S
C506        N512   1.157       .  T
C507        N516   1.157       .  T
C508        N514   1.156       .  T
N511       C1104   1.158       .  T
C517        C518   1.413       .  A
C517        C522   1.410       .  A
C517       C1135   1.451       .  S
C518        C523   1.498       .  S
C518        C519   1.414       .  A
C519        C520   1.410       .  A
C519        C524   1.451   1_556  S
C520        C521   1.411       .  A
C520        C536   1.451   1_556  S
C521        C522   1.409       .  A
C522       C1125   1.449       .  S
C523        C526   1.409       .  A
C523        C530   1.412       .  A
C524        N541   1.157       .  T
C525       C1122   1.449       .  S
C525        N543   1.157       .  T
C526        C527   1.408       .  A
C526        C531   1.453       .  S
C527        C528   1.414       .  A
C527        C533   1.440       .  S
C528        C529   1.418       .  A
C529        C530   1.413       .  A
C529       C1132   1.451   1_556  S
C530       C1134   1.451   1_556  S
C531        N538   1.157       .  T
C532       C1129   1.451   1_554  S
C532        N539   1.158       .  T
C533        N537   1.153       .  T
C534       C1130   1.451   1_554  S
C534        N540   1.157       .  T
C535       C1117   1.451   1_455  S
C535        N544   1.157       .  T
C536        N542   1.157       .  T
C545        C546   1.405       .  A
C545        C550   1.412       .  A
C545        C563   1.452       .  S
C546        C551   1.498       .  S
C546        C547   1.404       .  A
C547        C548   1.413       .  A
C547        C552   1.456       .  S
C548        C549   1.437       .  A
C548        C564   1.450       .  S
C549        C550   1.430       .  A
C550        C553   1.452       .  S
C551        C554   1.410       .  A
C551        C558   1.409       .  A
C552        N569   1.157       .  T
C553        N571   1.158       .  T
C554        C555   1.410       .  A
C554        C559   1.453       .  S
C555        C556   1.423       .  A
C555        C561   1.452       .  S
C556        C557   1.425       .  A
C557        C558   1.411       .  A
C557        C560   1.451       .  S
C558        C562   1.452       .  S
C559        N566   1.157       .  T
C560        N567   1.157       .  T
C561        N565   1.157       .  T
C562        N568   1.157       .  T
C563        N572   1.157       .  T
C564        N570   1.158       .  T
C573        C574   1.412       .  A
C573        C578   1.407       .  A
C573        C591   1.453       .  S
C574        C579   1.498       .  S
C574        C575   1.413       .  A
C575        C576   1.413       .  A
C575        C580   1.448       .  S
C576        C577   1.413       .  A
C576        C592   1.450       .  S
C577        C578   1.405       .  A
C578        C581   1.438       .  S
C579        C582   1.412       .  A
C579        C586   1.413       .  A
C580        N597   1.157       .  T
C581        N599   1.153   1_556  T
C582        C583   1.411       .  A
C582        C587   1.450   1_556  S
C583        C584   1.411       .  A
C583        C589   1.450   1_556  S
C584        C585   1.411       .  A
C585        C586   1.411       .  A
C585        C588   1.450       .  S
C586        C590   1.451       .  S
C587        N594   1.157       .  T
C588        N595   1.157       .  T
C589        N593   1.157       .  T
C590        N596   1.157       .  T
C591        N600   1.157       .  T
C592        N598   1.157       .  T
C601        C602   1.549       .  S
C601        C607   1.540       .  S
C601        C605   1.539       .  S
C601       C1149   1.559       .  S
C602        H609   1.082       .  S
C602        C603   1.373       .  D
C603        C604   1.561       .  S
C603        C658   1.516       .  S
C604        C608   1.536       .  S
C604        C606   1.564       .  S
C604        H610   1.105       .  S
C605        H611   1.086       .  S
C605        C606   1.361       .  D
C606        C618   1.516       .  S
C607        H612   1.082       .  S
C607        C608   1.361       .  D
C608       C1177   1.492       .  S
C613        C614   1.544       .  S
C613        C619   1.541       .  S
C613        C617   1.531       .  S
C613       C1100   1.555       .  S
C614        C615   1.369   1_554  D
C615        C616   1.554       .  S
C616        C620   1.545       .  S
C616        C618   1.566       .  S
C616        H622   1.101       .  S
C617        H623   1.068       .  S
C617        C618   1.358   1_554  D
C619        H624   1.085       .  S
C619        C620   1.371   1_554  D
C620       C1128   1.507       .  S
O625       Cu633   2.012       .  S
O625        C635   1.277       .  A
O626       Cu633   2.015   1_545  S
O626        C636   1.278       .  A
O627       Cu633   2.002   1_554  S
O627        C637   1.277       .  A
O628       Cu633   2.000       .  S
O628        C638   1.277       .  A
O629       Cu634   2.016       .  S
O629        C638   1.279       .  A
O630       Cu634   2.015   1_554  S
O630        C637   1.279       .  A
O631       Cu634   2.012       .  S
O631        C636   1.276   1_565  A
O632       Cu634   2.018       .  S
O632        C635   1.279       .  A
Cu633      Cu634   2.370       .  S
C635       C1009   1.483       .  S
C636       C1184   1.480       .  S
C637       C1044   1.503       .  S
C638       C1065   1.490       .  S
O639       Cu647   2.015       .  S
O640       Cu647   2.018   1_554  S
O641       Cu647   1.997       .  S
O642       Cu647   2.005       .  S
O643       Cu648   2.015       .  S
O643        C652   1.278   1_565  A
O644       Cu648   2.020       .  S
O644        C651   1.279       .  A
O645       Cu648   2.000   1_554  S
O645        C650   1.276       .  A
O646       Cu648   2.003       .  S
O646        C649   1.277       .  A
C649        C953   1.491       .  S
C652       C1121   1.477       .  S
C653        C654   1.542       .  S
C653        C659   1.533       .  S
C653        C657   1.546       .  S
C653        C897   1.560       .  S
C654        H661   1.084       .  S
C654        C655   1.361   1_554  D
C655        C656   1.567       .  S
C655        C667   1.513       .  S
C656        C660   1.544       .  S
C656        C658   1.561       .  S
C656        H662   1.103       .  S
C657        H663   1.080       .  S
C657        C658   1.372   1_554  D
C659        H664   1.086       .  S
C659        C660   1.368   1_554  D
C660       C1016   1.512       .  S
C665        C666   1.542       .  S
C665        C671   1.544       .  S
C665        C669   1.543       .  S
C665        C876   1.561       .  S
C666        H673   1.086       .  S
C666        C667   1.361       .  D
C667        C668   1.560       .  S
C668        C672   1.533       .  S
C668        C670   1.559       .  S
C668        H674   1.102       .  S
C669        C670   1.372       .  D
C671        H676   1.079       .  S
C671        C672   1.362       .  D
C672        C925   1.496       .  S
C677        C678   1.546       .  S
C677        C683   1.540       .  S
C677        C681   1.536       .  S
C677        C981   1.559       .  S
C678        C679   1.371       .  D
C679        C680   1.560       .  S
C680        C684   1.539       .  S
C680        C682   1.567       .  S
C680        H686   1.105       .  S
C681        H687   1.086       .  S
C681        C682   1.361       .  D
C682        C694   1.518       .  S
C683        H688   1.081       .  S
C683        C684   1.369       .  D
C684        C841   1.501       .  S
C689        C690   1.532       .  S
C689        C695   1.541       .  S
C689        C693   1.547       .  S
C689       C1072   1.550       .  S
C690        H697   1.081       .  S
C690        C691   1.367       .  D
C691        C692   1.556       .  S
C691        C734   1.505       .  S
C692        C696   1.539       .  S
C692        C694   1.565       .  S
C692        H698   1.105       .  S
C693        H699   1.083       .  S
C693        C694   1.364       .  D
C695        H700   1.082       .  S
C695        C696   1.362       .  D
C696        C813   1.495       .  S
O701       Cu709   2.010       .  S
O701        C711   1.279       .  A
O702       Cu709   2.010       .  S
O702        C712   1.278       .  A
O703       Cu709   2.009       .  S
O703        C713   1.277       .  A
O704       Cu709   2.004       .  S
O704        C714   1.276       .  A
O705       Cu710   2.008       .  S
O705        C714   1.277       .  A
O706       Cu710   2.007       .  S
O706        C713   1.277       .  A
O707       Cu710   2.005       .  S
O707        C712   1.277       .  A
O708       Cu710   2.005       .  S
O708        C711   1.277       .  A
Cu709      Cu710   2.371       .  S
C711       C1156   1.503       .  S
C712        C904   1.482       .  S
C713        C820   1.476       .  S
C714        C792   1.476       .  S
O715       Cu723   2.024       .  S
O715        C725   1.281       .  A
O716       Cu723   2.024       .  S
O716        C726   1.279       .  A
O717       Cu723   2.007       .  S
O717        C727   1.277       .  A
O718       Cu723   2.018       .  S
O718        C728   1.278   1_655  A
O719       Cu724   2.011       .  S
O720       Cu724   2.007       .  S
O721       Cu724   1.998       .  S
O722       Cu724   1.997       .  S
C725       C1093   1.492   1_655  S
C728        C764   1.480       .  S
C729        C730   1.547       .  S
C729        C735   1.543   1_565  S
C729        C733   1.535       .  S
C729       C1037   1.549       .  S
C730        H737   1.086       .  S
C730        C731   1.362       .  D
C731        C732   1.560       .  S
C731        C743   1.504       .  S
C732        C736   1.537   1_565  S
C732        C734   1.555       .  S
C732        H738   1.102       .  S
C733        H739   1.083       .  S
C733        C734   1.366       .  D
C735        H740   1.080       .  S
C735        C736   1.362       .  D
C736        C785   1.498       .  S
C741        C742   1.536       .  S
C741        C747   1.537       .  S
C741        C745   1.549       .  S
C741        C960   1.563       .  S
C742        H749   1.083       .  S
C742        C743   1.359       .  D
C743        C744   1.564       .  S
C744        C748   1.538   1_565  S
C744        C746   1.552       .  S
C744        H750   1.103       .  S
C745        C746   1.368       .  D
C747        H752   1.086   1_565  S
C747        C748   1.374   1_565  D
C748        C757   1.512       .  S
C753        C754   1.410   1_455  A
C753        C758   1.414       .  A
C754        C759   1.503   1_655  S
C754        C755   1.408       .  A
C755        C756   1.410       .  A
C755        C760   1.452       .  S
C756        C757   1.420       .  A
C756        C772   1.443       .  S
C757        C758   1.421   1_655  A
C759        C762   1.416       .  A
C759        C766   1.414       .  A
C760        N777   1.156       .  T
C761        N779   1.156       .  T
C762        C763   1.413       .  A
C763        C764   1.411       .  A
C764        C765   1.410       .  A
C765        C766   1.409       .  A
C765        C768   1.450       .  S
C766        C770   1.451       .  S
C767        N774   1.157       .  T
C768        N775   1.157       .  T
C769        N773   1.157       .  T
C770        N776   1.157   1_455  T
C771        N780   1.157       .  T
C772        N778   1.155       .  T
C781        C782   1.407       .  A
C781        C786   1.408       .  A
C781        C799   1.453       .  S
C782        C787   1.491       .  S
C782        C783   1.408       .  A
C783        C784   1.411       .  A
C783        C788   1.449       .  S
C784        C785   1.417       .  A
C784        C800   1.450       .  S
C785        C786   1.411       .  A
C786        C789   1.436       .  S
C787        C790   1.410       .  A
C787        C794   1.409       .  A
C788        N805   1.157       .  T
C789        N807   1.153       .  T
C790        C791   1.408       .  A
C790        C795   1.450       .  S
C791        C792   1.411       .  A
C791        C797   1.451       .  S
C792        C793   1.412       .  A
C793        C794   1.410       .  A
C793        C796   1.448       .  S
C794        C798   1.450       .  S
C795        N802   1.157       .  T
C796        N803   1.156       .  T
C797        N801   1.157       .  T
C798        N804   1.157       .  T
C799        N808   1.157       .  T
C800        N806   1.157       .  T
C809        C810   1.409       .  A
C809        C814   1.411       .  A
C809        C827   1.449       .  S
C810        C815   1.495       .  S
C810        C811   1.410       .  A
C811        C812   1.405       .  A
C811        C816   1.451       .  S
C812        C813   1.406       .  A
C812        C828   1.435       .  S
C813        C814   1.415       .  A
C814        C817   1.447       .  S
C815        C818   1.413       .  A
C815        C822   1.412       .  A
C816        N833   1.156       .  T
C817        N835   1.156       .  T
C818        C819   1.408       .  A
C818        C823   1.452       .  S
C819        C820   1.411       .  A
C819        C825   1.450       .  S
C820        C821   1.411       .  A
C821        C822   1.408       .  A
C821        C824   1.449       .  S
C822        C826   1.451       .  S
C823        N830   1.157       .  T
C824        N831   1.157       .  T
C825        N829   1.157       .  T
C826        N832   1.157       .  T
C827        N836   1.156       .  T
C828        N834   1.151       .  T
C837        C838   1.410       .  A
C837        C842   1.411       .  A
C837        C855   1.451       .  S
C838        C843   1.494       .  S
C839        C840   1.409       .  A
C839        C844   1.451       .  S
C840        C856   1.449       .  S
C841        C842   1.413       .  A
C842        C845   1.445       .  S
C843        C850   1.411       .  A
C844        N861   1.157       .  T
C845        N863   1.156       .  T
C846        C847   1.411       .  A
C846        C851   1.449       .  S
C847        C853   1.451       .  S
C848        C849   1.411       .  A
C849        C850   1.409       .  A
C849        C852   1.451       .  S
C850        C854   1.451       .  S
C851        N858   1.157       .  T
C852        N859   1.157       .  T
C853        N857   1.157       .  T
C854        N860   1.157       .  T
C855        N864   1.157       .  T
C856        N862   1.156       .  T
C865        C866   1.410       .  A
C865        C870   1.407       .  A
C865        C883   1.454       .  S
C866        C871   1.500       .  S
C867        C868   1.416       .  A
C867        C872   1.451       .  S
C868        C884   1.451       .  S
C869        C870   1.422       .  A
C870        C873   1.453       .  S
C871        C874   1.405       .  A
C871        C878   1.406       .  A
C872        N889   1.157       .  T
C873        N891   1.157       .  T
C874        C875   1.409       .  A
C874        C879   1.455       .  S
C875        C876   1.434       .  A
C875        C881   1.449       .  S
C876        C877   1.431       .  A
C877        C878   1.416       .  A
C877        C880   1.452       .  S
C878        C882   1.451       .  S
C879        N886   1.157       .  T
C880        N887   1.157       .  T
C881        N885   1.158       .  T
C883        N892   1.157       .  T
C884        N890   1.157       .  T
C893        C894   1.404       .  A
C893        C898   1.412       .  A
C893        C911   1.455       .  S
C894        C899   1.494       .  S
C894        C895   1.401       .  A
C895        C896   1.412       .  A
C895        C900   1.452       .  S
C896        C897   1.430       .  A
C896        C912   1.445       .  S
C897        C898   1.434       .  A
C898        C901   1.449       .  S
C899        C902   1.408       .  A
C899        C906   1.412       .  A
C900        N917   1.157       .  T
C901        N919   1.157       .  T
C902        C903   1.409       .  A
C902        C907   1.450       .  S
C903        C904   1.414       .  A
C903        C909   1.450       .  S
C904        C905   1.413       .  A
C905        C906   1.410       .  A
C905        C908   1.451       .  S
C906        C910   1.450       .  S
C907        N914   1.157       .  T
C908        N915   1.158       .  T
C909        N913   1.157       .  T
C910        N916   1.157       .  T
C911        N920   1.157       .  T
C912        N918   1.155       .  T
C921        C922   1.407       .  A
C921        C926   1.408       .  A
C921        C939   1.452   1_556  S
C922        C927   1.492       .  S
C923        C924   1.411       .  A
C923        C928   1.449       .  S
C924        C940   1.450       .  S
C925        C926   1.410       .  A
C926        C929   1.439       .  S
C927        C930   1.411       .  A
C928        N945   1.157       .  T
C929        N947   1.154   1_556  T
C930        C931   1.408       .  A
C930        C935   1.452       .  S
C931        C932   1.412       .  A
C931        C937   1.451       .  S
C933        C934   1.411       .  A
C933        C936   1.450   1_556  S
C934        C938   1.449   1_556  S
C935        N942   1.157       .  T
C936        N943   1.157       .  T
C937        N941   1.157       .  T
C938        N944   1.157       .  T
C939        N948   1.157       .  T
C940        N946   1.157       .  T
C949        C950   1.412   1_455  A
C949        C954   1.410       .  A
C949        C967   1.452       .  S
C950        C955   1.498       .  S
C950        C951   1.406       .  A
C951        C952   1.410       .  A
C951        C956   1.449       .  S
C952        C953   1.420       .  A
C952        C968   1.452       .  S
C953        C954   1.417   1_655  A
C954        C957   1.451       .  S
C955        C958   1.398       .  A
C955        C962   1.401       .  A
C956        N973   1.157       .  T
C957        N975   1.157       .  T
C958        C959   1.411       .  A
C959        C960   1.433       .  A
C960        C961   1.436       .  A
C961        C962   1.413       .  A
C961        C964   1.449       .  S
C962        C966   1.452       .  S
C963        N970   1.156       .  T
C964        N971   1.157   1_565  T
C965        N969   1.157       .  T
C966        N972   1.156       .  T
C967        N976   1.157       .  T
C977        C978   1.407       .  A
C977        C982   1.415       .  A
C977        C995   1.451   1_565  S
C978        C983   1.500       .  S
C978        C979   1.405       .  A
C979        C980   1.411       .  A
C979        C984   1.456       .  S
C980        C981   1.434       .  A
C980        C996   1.449       .  S
C981        C982   1.430       .  A
C982        C985   1.452       .  S
C983        C986   1.409       .  A
C985       N1003   1.158   1_565  T
C986        C987   1.410       .  A
C986        C991   1.450       .  S
C987        C988   1.421       .  A
C987        C993   1.452       .  S
C989        C990   1.412       .  A
C989        C992   1.452       .  S
C990        C994   1.452       .  S
C991        N998   1.156       .  T
C992        N999   1.158       .  T
C993        N997   1.158       .  T
C994       N1000   1.157       .  T
C995       N1004   1.157       .  T
C996       N1002   1.157       .  T
C1005      C1006   1.411       .  A
C1005      C1010   1.409       .  A
C1005      C1023   1.451   1_556  S
C1006      C1011   1.500       .  S
C1006      C1007   1.414       .  A
C1007      C1008   1.415       .  A
C1007      C1012   1.449       .  S
C1008      C1009   1.412       .  A
C1008      C1024   1.451       .  S
C1009      C1010   1.411       .  A
C1010      C1013   1.448   1_556  S
C1011      C1014   1.407       .  A
C1011      C1018   1.409       .  A
C1012      N1029   1.157       .  T
C1013      N1031   1.156       .  T
C1014      C1015   1.411       .  A
C1014      C1019   1.453       .  S
C1015      C1016   1.418       .  A
C1015      C1021   1.440       .  S
C1016      C1017   1.421       .  A
C1017      C1018   1.414       .  A
C1017      C1020   1.451   1_556  S
C1018      C1022   1.449   1_556  S
C1019      N1026   1.157       .  T
C1020      N1027   1.157       .  T
C1021      N1025   1.154       .  T
C1022      N1028   1.157       .  T
C1023      N1032   1.157       .  T
C1024      N1030   1.157       .  T
C1033      C1034   1.407       .  A
C1033      C1038   1.412       .  A
C1033      C1051   1.450       .  S
C1034      C1039   1.493       .  S
C1034      C1035   1.405       .  A
C1035      C1036   1.408       .  A
C1035      C1040   1.453   1_565  S
C1036      C1037   1.425       .  A
C1036      C1052   1.448   1_565  S
C1037      C1038   1.424       .  A
C1038      C1041   1.451       .  S
C1039      C1042   1.407       .  A
C1039      C1046   1.406       .  A
C1040      N1057   1.157       .  T
C1041      N1059   1.157       .  T
C1042      C1043   1.411       .  A
C1042      C1047   1.452       .  S
C1043      C1044   1.424       .  A
C1043      C1049   1.452       .  S
C1044      C1045   1.425       .  A
C1045      C1046   1.410       .  A
C1045      C1048   1.452       .  S
C1046      C1050   1.453       .  S
C1047      N1054   1.157       .  T
C1048      N1055   1.158       .  T
C1049      N1053   1.158       .  T
C1050      N1056   1.157       .  T
C1051      N1060   1.157       .  T
C1052      N1058   1.157       .  T
C1061      C1062   1.411       .  A
C1061      C1066   1.410       .  A
C1061      C1079   1.450       .  S
C1062      C1067   1.498       .  S
C1062      C1063   1.410       .  A
C1063      C1064   1.411       .  A
C1063      C1068   1.450   1_565  S
C1064      C1065   1.419       .  A
C1064      C1080   1.452   1_565  S
C1065      C1066   1.416       .  A
C1066      C1069   1.451       .  S
C1067      C1070   1.410       .  A
C1067      C1074   1.408       .  A
C1068      N1085   1.157       .  T
C1069      N1087   1.157       .  T
C1070      C1071   1.412       .  A
C1070      C1075   1.449       .  S
C1071      C1072   1.419       .  A
C1071      C1077   1.449       .  S
C1072      C1073   1.423       .  A
C1073      C1074   1.409       .  A
C1073      C1076   1.447       .  S
C1074      C1078   1.452       .  S
C1075      N1082   1.157   1_565  T
C1076      N1083   1.157       .  T
C1077      N1081   1.157   1_565  T
C1078      N1084   1.157       .  T
C1079      N1088   1.157       .  T
C1080      N1086   1.158       .  T
C1089      C1094   1.412       .  A
C1089      C1107   1.449       .  S
C1090      C1095   1.501       .  S
C1090      C1091   1.412       .  A
C1091      C1092   1.410       .  A
C1091      C1096   1.452       .  S
C1092      C1093   1.415   1_655  A
C1092      C1108   1.448       .  S
C1094      C1097   1.451       .  S
C1095      C1098   1.407       .  A
C1095      C1102   1.409       .  A
C1096      N1113   1.157       .  T
C1097      N1115   1.157       .  T
C1098      C1099   1.408       .  A
C1098      C1103   1.455       .  S
C1099      C1100   1.425       .  A
C1099      C1105   1.448       .  S
C1100      C1101   1.428       .  A
C1101      C1102   1.415       .  A
C1101      C1104   1.451       .  S
C1103      N1110   1.157       .  T
C1105      N1109   1.156       .  T
C1106      N1112   1.157       .  T
C1107      N1116   1.157       .  T
C1108      N1114   1.156       .  T
C1117      C1118   1.413       .  A
C1117      C1122   1.410       .  A
C1118      C1123   1.498       .  S
C1118      C1119   1.414       .  A
C1119      C1120   1.410       .  A
C1119      C1124   1.451   1_556  S
C1120      C1121   1.411       .  A
C1120      C1136   1.451   1_556  S
C1121      C1122   1.409       .  A
C1123      C1126   1.409       .  A
C1123      C1130   1.412   1_655  A
C1124      N1141   1.157       .  T
C1125      N1143   1.157       .  T
C1126      C1127   1.408       .  A
C1126      C1131   1.453       .  S
C1127      C1128   1.414       .  A
C1127      C1133   1.440       .  S
C1128      C1129   1.418   1_655  A
C1129      C1130   1.413       .  A
C1131      N1138   1.157       .  T
C1132      N1139   1.158       .  T
C1133      N1137   1.153       .  T
C1134      N1140   1.157       .  T
C1135      N1144   1.157       .  T
C1136      N1142   1.157       .  T
C1145      C1146   1.405       .  A
C1145      C1150   1.412       .  A
C1145      C1163   1.452       .  S
C1146      C1151   1.498       .  S
C1146      C1147   1.404       .  A
C1147      C1148   1.413       .  A
C1147      C1152   1.456       .  S
C1148      C1149   1.437       .  A
C1148      C1164   1.450       .  S
C1149      C1150   1.430       .  A
C1150      C1153   1.452       .  S
C1151      C1154   1.410       .  A
C1151      C1158   1.408       .  A
C1152      N1169   1.157       .  T
C1153      N1171   1.158       .  T
C1154      C1155   1.410       .  A
C1154      C1159   1.453       .  S
C1155      C1156   1.423       .  A
C1155      C1161   1.452       .  S
C1156      C1157   1.425       .  A
C1157      C1158   1.411       .  A
C1157      C1160   1.451       .  S
C1158      C1162   1.452       .  S
C1159      N1166   1.157       .  T
C1160      N1167   1.157       .  T
C1161      N1165   1.157       .  T
C1162      N1168   1.157       .  T
C1163      N1172   1.157       .  T
C1164      N1170   1.158       .  T
C1173      C1174   1.412       .  A
C1173      C1178   1.407       .  A
C1173      C1191   1.453       .  S
C1174      C1179   1.498       .  S
C1174      C1175   1.413       .  A
C1175      C1176   1.413       .  A
C1175      C1180   1.448       .  S
C1176      C1177   1.413       .  A
C1176      C1192   1.450       .  S
C1177      C1178   1.405       .  A
C1178      C1181   1.438       .  S
C1179      C1182   1.412       .  A
C1179      C1186   1.413       .  A
C1180      N1197   1.157       .  T
C1181      N1199   1.153   1_556  T
C1182      C1183   1.411       .  A
C1182      C1187   1.450   1_556  S
C1183      C1184   1.411       .  A
C1183      C1189   1.450   1_556  S
C1184      C1185   1.411       .  A
C1185      C1186   1.411       .  A
C1185      C1188   1.450       .  S
C1186      C1190   1.451       .  S
C1187      N1194   1.157       .  T
C1188      N1195   1.157       .  T
C1189      N1193   1.157       .  T
C1190      N1196   1.157       .  T
C1191      N1200   1.157       .  T
C1192      N1198   1.157       .  T
