geometry optimzed in LAMMPS
_audit_creation_date              2020-11-30 
_audit_creation_method            'lammps2cif' 
_symmetry_space_group_name_H-M    'P1' 
_symmetry_Int_Tables_number       1 
_symmetry_cell_setting            triclinic 
loop_ 
_symmetry_equiv_pos_as_xyz 
  x,y,z 
_cell_length_a                    46.41318366084153 
_cell_length_b                    48.34706381795912 
_cell_length_c                    21.34271105576656 
_cell_angle_alpha                 90.45491234055238 
_cell_angle_beta                  90.48620129839402 
_cell_angle_gamma                 90.47668847873162 
loop_ 
_atom_site_label 
_atom_site_type_symbol 
_atom_site_fract_x 
_atom_site_fract_y 
_atom_site_fract_z 
_atom_site_charge 
C1          C  0.50114717  0.01786648  0.00836506     0.00430
C2          C  0.49929025  0.49699687  0.96423855     0.00430
C3          C  0.50192329  0.25899263  0.98563920     0.00430
C4          C  0.50409586  0.24100902  0.03520602     0.00430
C5          C  0.12912791  0.06771506  0.75701601     0.03000
C6          C  0.12679432  0.09652198  0.75566417    -0.13150
C7          C  0.10446782  0.11030868  0.78654888     0.00500
C8          C  0.08442857  0.09424438  0.81983934    -0.11680
C9          C  0.08787291  0.06541873  0.82722052     0.02990
C10         C  0.11067088  0.05235253  0.79566728    -0.11100
H11         H  0.14268647  0.10791552  0.72953290     0.08580
H12         H  0.06596695  0.10417272  0.84052224     0.06110
H13         H  0.11433630  0.03043716  0.80114030     0.05960
C14         C  0.11179600  0.18449368  0.72856151     0.03000
C15         C  0.11368634  0.15573096  0.73213981    -0.13150
C16         C  0.10172024  0.14117558  0.78252996     0.00500
C17         C  0.08776783  0.15652607  0.82963242    -0.11680
C18         C  0.08178751  0.18490793  0.82205244     0.02990
C19         C  0.09451667  0.19873233  0.77120653    -0.11100
H20         H  0.12555168  0.14516362  0.69611160     0.08580
H21         H  0.08150339  0.14635947  0.87229426     0.06110
H22         H  0.09155401  0.22067271  0.76440497     0.05960
C23         C  0.35804996  0.43145510  0.79512837     0.03000
C24         C  0.37810777  0.44794773  0.82757807    -0.13150
C25         C  0.40245481  0.43597102  0.85597080     0.00500
C26         C  0.40478292  0.40673571  0.85461674    -0.11680
C27         C  0.38260010  0.38985249  0.82920006     0.02990
C28         C  0.35867165  0.40285207  0.80197944    -0.11100
H29         H  0.37513980  0.47006974  0.82786571     0.08580
H30         H  0.42424594  0.39714987  0.87172551     0.06110
H31         H  0.34108492  0.39096744  0.78154150     0.05960
C32         C  0.37159615  0.31569039  0.77325089     0.03000
C33         C  0.39084015  0.30117127  0.81162692    -0.13150
C34         C  0.40719463  0.31531785  0.85828633     0.00500
C35         C  0.40170247  0.34379706  0.86815796    -0.11680
C36         C  0.38538089  0.35902810  0.82475059     0.02990
C37         C  0.37158971  0.34450009  0.77575775    -0.11100
H38         H  0.39284420  0.27909525  0.80465614     0.08580
H39         H  0.41082337  0.35425823  0.90869013     0.06110
H40         H  0.35963391  0.35520563  0.73982378     0.05960
C41         C  0.14392655  0.43494636  0.20749314     0.03000
C42         C  0.14885880  0.40723598  0.19221233    -0.13150
C43         C  0.12942918  0.39200612  0.15429747     0.00500
C44         C  0.10846665  0.40701236  0.12070009    -0.11680
C45         C  0.10428806  0.43562342  0.13149707     0.02990
C46         C  0.12108664  0.44883526  0.17845488    -0.11100
H47         H  0.16741312  0.39752081  0.21321530     0.08580
H48         H  0.09469049  0.39646384  0.08736848     0.06110
H49         H  0.11624870  0.46973898  0.19323141     0.05960
C50         C  0.13991502  0.31859735  0.21540047     0.03000
C51         C  0.14214945  0.34718910  0.20773068    -0.13150
C52         C  0.12875353  0.36077528  0.15737592     0.00500
C53         C  0.11211642  0.34437829  0.11552359    -0.11680
C54         C  0.10547729  0.31636003  0.12857335     0.02990
C55         C  0.11989636  0.30357820  0.17886088    -0.11100
H56         H  0.15425683  0.35842680  0.24310282     0.08580
H57         H  0.10280174  0.35351638  0.07422716     0.06110
H58         H  0.11531923  0.28230587  0.19069093     0.05960
O59         O  0.27156669  0.28769645  0.56785603    -0.57950
C60         C  0.20980640  0.27519611  0.41578498     0.74680
O61         O  0.27431332  0.21332788  0.45306912    -0.59100
C62         C  0.28981651  0.27161460  0.59285437     0.74650
C63         C  0.20423582  0.22928964  0.58245803     0.77050
Cd64       Cd  0.24813696  0.25120616  0.50431932     1.37470
O65         O  0.22820136  0.29015885  0.44512616    -0.57940
O66         O  0.21194051  0.25445316  0.58491047    -0.56750
C67         C  0.28750837  0.22935978  0.41579549     0.77010
O68         O  0.21790675  0.21357116  0.54529925    -0.59120
O69         O  0.20923079  0.24968579  0.42825049    -0.57580
O70         O  0.28821245  0.24627256  0.57782552    -0.57570
O71         O  0.28225675  0.25491900  0.42038380    -0.56740
C72         C  0.37615117  0.06938352  0.24129346     0.03000
C73         C  0.39576026  0.05580639  0.20229066    -0.13150
C74         C  0.40739708  0.06924428  0.14970703     0.00500
C75         C  0.39987873  0.09716601  0.13938924    -0.11680
C76         C  0.38350457  0.11234745  0.18321348     0.02990
C77         C  0.37121988  0.09758436  0.23311074    -0.11100
H78         H  0.40188691  0.03490994  0.21372481     0.08580
H79         H  0.40751344  0.10701018  0.09751889     0.06110
H80         H  0.35792882  0.10763804  0.26743499     0.05960
C81         C  0.36848674  0.18573145  0.23832483     0.03000
C82         C  0.39061404  0.20049449  0.20897167    -0.13150
C83         C  0.40687723  0.18794501  0.16147082     0.00500
C84         C  0.40212169  0.15950855  0.14839521    -0.11680
C85         C  0.38209826  0.14359745  0.18227136     0.02990
C86         C  0.36349527  0.15795961  0.22247915    -0.11100
H87         H  0.39528848  0.22149069  0.22404084     0.08580
H88         H  0.41505241  0.14972911  0.11316874     0.06110
H89         H  0.34544043  0.14767461  0.24408700     0.05960
O90         O  0.27615274  0.46187944  0.55514516    -0.57950
C91         C  0.21595605  0.47903288  0.40816332     0.74680
O92         O  0.23074203  0.04058806  0.55482819    -0.59100
C93         C  0.28664382  0.47652212  0.59956482     0.74650
C94         C  0.29984547  0.02298173  0.42508678     0.77050
Cd95       Cd  0.25435868  0.00154185  0.50150705     1.37470
O96         O  0.22898049  0.46359087  0.44676493    -0.57940
O97         O  0.29387714  0.49745815  0.42805878    -0.56750
C98         C  0.21273501  0.02514352  0.58277954     0.77010
O99         O  0.28476048  0.03918249  0.45826644    -0.59120
O100        O  0.22099413  0.00476871  0.41294409    -0.57580
O101        O  0.28279635  0.00232072  0.59690222    -0.57570
O102        O  0.21319435  0.49959997  0.56967533    -0.56740
C103        C  0.00110515  0.26733329  0.01614324     0.00430
C104        C  0.99921252  0.24617294  0.97275903     0.00430
C105        C  0.00286250  0.01531936  0.98994928     0.00430
C106        C  0.00438680  0.49435481  0.03316988     0.00430
C107        C  0.86564316  0.06660307  0.78794972     0.03000
C108        C  0.88690234  0.05195111  0.82020953    -0.13150
C109        C  0.90730171  0.06620003  0.85779304     0.00500
C110        C  0.90648312  0.09537498  0.86111024    -0.11680
C111        C  0.88437451  0.11036500  0.83100679     0.02990
C112        C  0.86283787  0.09493003  0.79911013    -0.11100
H113        H  0.88795632  0.02968905  0.81483303     0.08580
H114        H  0.92361871  0.10593205  0.88632747     0.06110
H115        H  0.84401623  0.10460439  0.77937747     0.05960
C116        C  0.86545774  0.18389743  0.78057885     0.03000
C117        C  0.88312653  0.20004036  0.81953458    -0.13150
C118        C  0.90279749  0.18749952  0.86022757     0.00500
C119        C  0.90241371  0.15846586  0.86674868    -0.11680
C120        C  0.88423512  0.14163228  0.82849364     0.02990
C121        C  0.86680499  0.15512404  0.78375976    -0.11100
H122        H  0.88287712  0.22237267  0.81531123     0.08580
H123        H  0.91713476  0.14944205  0.90004266     0.06110
H124        H  0.85431321  0.14377795  0.74926144     0.05960
C125        C  0.87323021  0.43710730  0.24211979     0.03000
C126        C  0.89367013  0.45325620  0.21081255    -0.13150
C127        C  0.91435580  0.44053843  0.17292522     0.00500
C128        C  0.91650103  0.41148924  0.17149205    -0.11680
C129        C  0.89662821  0.39494198  0.20429078     0.02990
C130        C  0.87385916  0.40836480  0.23504891    -0.11100
H131        H  0.89355457  0.47557683  0.21575809     0.08580
H132        H  0.93402540  0.40223285  0.14592385     0.06110
H133        H  0.85649334  0.39661356  0.25570725     0.05960
C134        C  0.88263767  0.32156036  0.25971922     0.03000
C135        C  0.89729170  0.30570498  0.21512307    -0.13150
C136        C  0.91463063  0.31876386  0.17034664     0.00500
C137        C  0.91434683  0.34784098  0.16535629    -0.11680
C138        C  0.89923009  0.36405292  0.20911778     0.02990
C139        C  0.88577319  0.35032028  0.25899798    -0.11100
H140        H  0.89546551  0.28335364  0.21522891     0.08580
H141        H  0.92620140  0.35746376  0.12787543     0.06110
H142        H  0.87647825  0.36185353  0.29729428     0.05960
C143        C  0.63167933  0.06889647  0.23280102     0.03000
C144        C  0.61286205  0.05330377  0.19484000    -0.13150
C145        C  0.59636227  0.06619319  0.14825811     0.00500
C146        C  0.60045073  0.09465376  0.13664180    -0.11680
C147        C  0.61974996  0.11070372  0.17346007     0.02990
C148        C  0.63473577  0.09727097  0.22224169    -0.11100
H149        H  0.61050586  0.03127309  0.20258964     0.08580
H150        H  0.58815407  0.10405480  0.09937969     0.06110
H151        H  0.64880411  0.10861899  0.25381960     0.05960
C152        C  0.64721098  0.18366399  0.20316569     0.03000
C153        C  0.64727830  0.15515019  0.19207188    -0.13150
C154        C  0.62329679  0.14148353  0.16503194     0.00500
C155        C  0.60190972  0.15801091  0.13666555    -0.11680
C156        C  0.60373210  0.18714383  0.13985883     0.02990
C157        C  0.62556675  0.19974238  0.17610121    -0.11100
H158        H  0.66551973  0.14370280  0.20952699     0.08580
H159        H  0.58315587  0.14872148  0.11442192     0.06110
H160        H  0.62521157  0.22187227  0.18449925     0.05960
C161        C  0.61935724  0.43149377  0.74705389     0.03000
C162        C  0.60532582  0.44678572  0.79329709    -0.13150
C163        C  0.58656767  0.43364697  0.83521732     0.00500
C164        C  0.58485847  0.40443498  0.83554377    -0.11680
C165        C  0.60003917  0.38854658  0.79073566     0.02990
C166        C  0.61478443  0.40298819  0.74360215    -0.11100
H167        H  0.60828444  0.46902818  0.79572787     0.08580
H168        H  0.57128468  0.39458801  0.86975027     0.06110
H169        H  0.62369467  0.39233578  0.70369872     0.05960
C170        C  0.62331604  0.31485885  0.75076108     0.03000
C171        C  0.60478501  0.29887204  0.78719324    -0.13150
C172        C  0.58459002  0.31174623  0.82608521     0.00500
C173        C  0.58238904  0.34085473  0.82665990    -0.11680
C174        C  0.60149315  0.35736408  0.79170389     0.02990
C175        C  0.62300179  0.34361667  0.75723512    -0.11100
H176        H  0.60612316  0.27651115  0.78541808     0.08580
H177        H  0.56573374  0.35018605  0.85463580     0.06110
H178        H  0.64006686  0.35485635  0.73437233     0.05960
O179        O  0.77984517  0.21413322  0.54888932    -0.57950
C180        C  0.71854318  0.22715262  0.40465096     0.74680
O181        O  0.72353454  0.28896391  0.54742278    -0.59100
C182        C  0.79137168  0.22944805  0.59088650     0.74650
C183        C  0.79623883  0.27699625  0.42566213     0.77050
Cd184      Cd  0.75308724  0.25197917  0.50112542     1.37460
O185        O  0.73020662  0.21257021  0.44683289    -0.57940
O186        O  0.79470636  0.25115991  0.43378183    -0.56750
C187        C  0.70974278  0.27272226  0.58305582     0.77010
O188        O  0.77808102  0.29177611  0.45464904    -0.59120
O189        O  0.72291151  0.25297526  0.40802550    -0.57580
O190        O  0.78457823  0.25474628  0.59156316    -0.57570
O191        O  0.71566261  0.24727689  0.57928531    -0.56740
O192        O  0.72365581  0.03923422  0.45449316    -0.57950
C193        C  0.78688039  0.02230882  0.60056383     0.74680
O194        O  0.72333816  0.46153189  0.55238674    -0.59100
C195        C  0.71051256  0.02368236  0.41511847     0.74650
C196        C  0.79104620  0.47902652  0.42095164     0.77050
Cd197      Cd  0.74903128  0.00063599  0.50510917     1.37470
O198        O  0.77449171  0.03832640  0.56203637    -0.57940
O199        O  0.78577035  0.00460302  0.42510629    -0.56750
C200        C  0.70623096  0.47667519  0.58339736     0.77010
O201        O  0.77646908  0.46298387  0.45558800    -0.59120
O202        O  0.78182177  0.49671454  0.59402162    -0.57580
O203        O  0.71519188  0.49798455  0.41850826    -0.57570
O204        O  0.70869941  0.00255251  0.57654744    -0.56740
C205        C  0.64353806  0.30210379  0.70573114    -0.06250
C206        C  0.66328446  0.28246298  0.72722990    -0.17380
C207        C  0.68529768  0.27279222  0.68850975     0.10940
C208        C  0.68760665  0.28278785  0.62659913    -0.06180
C209        C  0.66750389  0.30194304  0.60468633    -0.17410
C210        C  0.64518467  0.31118505  0.64288108     0.10970
S211        S  0.71071911  0.24897906  0.72212963    -0.32380
S212        S  0.61897617  0.33387424  0.60787624    -0.32390
H213        H  0.59565036  0.32477157  0.64422577     0.28980
H214        H  0.73498278  0.26023922  0.69221568     0.28980
H215        H  0.66233192  0.27552489  0.77528966     0.19570
H216        H  0.66867620  0.30913308  0.55682052     0.19580
C217        C  0.68434551  0.46510043  0.62575056    -0.06250
C218        C  0.65753313  0.47830615  0.63020733    -0.17380
C219        C  0.63562328  0.46783060  0.66832162     0.10940
C220        C  0.64092883  0.44409507  0.70474281    -0.06180
C221        C  0.66795824  0.43126896  0.70085251    -0.17410
C222        C  0.68958258  0.44142831  0.66214904     0.10970
S223        S  0.60119106  0.98484375  0.66560143    -0.32380
S224        S  0.72374741  0.42395032  0.66390634    -0.32390
H225        H  0.74041129  0.44839890  0.66412363     0.28790
H226        H  0.58456999  0.46071735  0.67389437     0.28980
H227        H  0.65327621  0.99644192  0.60217978     0.19570
H228        H  0.67248386  0.41329996  0.72924457     0.19580
C229        C  0.66670460  0.19504593  0.25245059    -0.06250
C230        C  0.66702186  0.18151800  0.31056396    -0.17380
C231        C  0.68419597  0.19094356  0.36027381     0.10940
C232        C  0.70101146  0.21512356  0.35309240    -0.06180
C233        C  0.70047180  0.22891508  0.29526965    -0.17410
C234        C  0.68398088  0.21890018  0.24464548     0.10970
S235        S  0.68215771  0.17221295  0.43265775    -0.32380
S236        S  0.68674647  0.23695800  0.17133336    -0.32390
H237        H  0.68198677  0.21356814  0.13294552     0.28980
H238        H  0.71094342  0.16346422  0.42903675     0.28980
H239        H  0.65346369  0.16344264  0.31759449     0.19570
H240        H  0.71351948  0.24737607  0.28896227     0.19580
C241        C  0.69029309  0.03474745  0.36802025    -0.06250
C242        C  0.67182896  0.05618508  0.38576474    -0.17380
C243        C  0.65108544  0.06636935  0.34417052     0.10940
C244        C  0.64938455  0.05569062  0.28225285    -0.06180
C245        C  0.66745812  0.03385526  0.26498594    -0.17410
C246        C  0.68791375  0.02340015  0.30686024     0.10970
S247        S  0.62686307  0.09232098  0.37373251    -0.32380
S248        S  0.71146630  0.49678274  0.27790556    -0.32390
H249        H  0.73636785  0.50725829  0.30813529     0.28980
H250        H  0.60358033  0.08500327  0.33417542     0.28980
H251        H  0.67298546  0.06451426  0.43299198     0.19570
H252        H  0.66658802  0.02576241  0.21753672     0.19580
C253        C  0.86133706  0.30934080  0.30340857    -0.06250
C254        C  0.83412934  0.32191147  0.30671247    -0.17380
C255        C  0.81268813  0.31205602  0.34625225     0.10940
C256        C  0.81817764  0.28879976  0.38379631    -0.06180
C257        C  0.84516187  0.27587570  0.38011213    -0.17410
C258        C  0.86693003  0.28616026  0.34141656     0.10970
S259        S  0.77841604  0.32932026  0.34392944    -0.32380
S260        S  0.90159047  0.26976686  0.34571672    -0.32390
H261        H  0.91743138  0.29448766  0.33937040     0.28980
H262        H  0.76199988  0.30471369  0.34266418     0.28980
H263        H  0.82926286  0.33941302  0.27712767     0.19570
H264        H  0.84964123  0.25807792  0.40908140     0.19580
C265        C  0.81291429  0.46875421  0.37689492    -0.06250
C266        C  0.81465814  0.48093459  0.31744900    -0.17380
C267        C  0.83379531  0.47111125  0.27215868     0.10940
C268        C  0.85251032  0.44919448  0.28719372    -0.06180
C269        C  0.85123255  0.43760276  0.34741238    -0.17410
C270        C  0.83179901  0.44707088  0.39215567     0.10970
S271        S  0.83191048  0.48631703  0.19540682    -0.32380
S272        S  0.83304719  0.43130968  0.46840851    -0.32390
H273        H  0.82841615  0.45603259  0.50191551     0.28980
H274        H  0.83780688  0.46176795  0.16232354     0.28980
H275        H  0.80013735  0.99753856  0.30525705     0.19570
H276        H  0.86578669  0.42107220  0.35999055     0.19580
C277        C  0.84687385  0.19671608  0.73262151    -0.06250
C278        C  0.85094116  0.18922247  0.66961664    -0.17380
C279        C  0.83360173  0.20000430  0.62213122     0.10940
C280        C  0.81143691  0.21852725  0.63786424    -0.06180
C281        C  0.80787214  0.22664867  0.70052286    -0.17410
C282        C  0.82498802  0.21562486  0.74813861     0.10970
S283        S  0.84161279  0.19020995  0.54249863    -0.32380
S284        S  0.81675421  0.22541680  0.82764889    -0.32390
H285        H  0.82348829  0.19970725  0.85414535     0.28980
H286        H  0.83516716  0.21613498  0.51663372     0.28980
H287        H  0.86799856  0.17503258  0.65729191     0.19570
H288        H  0.79082649  0.24086111  0.71279093     0.19580
C289        C  0.80689126  0.03282764  0.64963312    -0.06250
C290        C  0.82519585  0.05491896  0.63464479    -0.17380
C291        C  0.84575704  0.06489799  0.67746630     0.10940
C292        C  0.84738846  0.05348610  0.73838223    -0.06180
C293        C  0.82956367  0.03094567  0.75307420    -0.17410
C294        C  0.80931428  0.02055640  0.70953643     0.10970
S295        S  0.86988168  0.09171276  0.65052964    -0.32380
S296        S  0.78620488  0.49267776  0.73465630    -0.32390
H297        H  0.76120564  0.50286267  0.70540853     0.28980
H298        H  0.89362486  0.08348740  0.68710383     0.28980
H299        H  0.82411843  0.06394257  0.58838444     0.19570
H300        H  0.83059389  0.02213695  0.79952100     0.19580
C301        C  0.97488989  0.02543031  0.96269919    -0.06250
C302        C  0.96919645  0.01812220  0.89974879    -0.17380
C303        C  0.94795539  0.03118116  0.86419561     0.10940
C304        C  0.93006459  0.05100734  0.89280619    -0.06180
C305        C  0.93410458  0.05684426  0.95691395    -0.17410
C306        C  0.95623203  0.04461611  0.99211094     0.10970
S307        S  0.94688067  0.02325857  0.78145281    -0.32380
S308        S  0.95864157  0.05525340  0.07316550    -0.32390
H309        H  0.98285299  0.04027145  0.08985510     0.28980
H310        H  0.94062249  0.05036982  0.76251698     0.28980
H311        H  0.98255512  0.00303489  0.87653310     0.19570
H312        H  0.92008382  0.07158644  0.97968978     0.19580
C313        C  0.97854896  0.48551320  0.07029881    -0.06250
C314        C  0.95399551  0.47479350  0.03901806    -0.17380
C315        C  0.93217772  0.46098458  0.07166808     0.10940
C316        C  0.93475652  0.45767679  0.13707851    -0.06180
C317        C  0.95816232  0.46968606  0.16892553    -0.17410
C318        C  0.97994390  0.48356891  0.13672700     0.10970
S319        S  0.90239636  0.44669738  0.02687247    -0.32380
S320        S  0.00932831  0.49708566  0.18414399    -0.32390
H321        H  0.01849536  0.51743791  0.14251246     0.28980
H322        H  0.88192954  0.44829809  0.07490930     0.28980
H323        H  0.95266614  0.47538472  0.98845421     0.19570
H324        H  0.95993064  0.46745278  0.21927191     0.19580
C325        C  0.97078643  0.23497361  0.95005023    -0.06250
C326        C  0.96542719  0.23738404  0.88554179    -0.17380
C327        C  0.94381705  0.22205844  0.85545947     0.10940
C328        C  0.92562940  0.20463265  0.89083747    -0.06180
C329        C  0.93014766  0.20284544  0.95581162    -0.17410
C330        C  0.95296394  0.21712597  0.98555973     0.10970
S331        S  0.94274946  0.22376433  0.77100899    -0.32380
S332        S  0.95951714  0.20925547  0.06687247    -0.32390
H333        H  0.98935517  0.21425280  0.06711752     0.28980
H334        H  0.93685085  0.19543436  0.76168835     0.28980
H335        H  0.97974079  0.24992882  0.85738950     0.19570
H336        H  0.91659069  0.18922181  0.98310719     0.19580
C337        C  0.97502634  0.27678569  0.05143294    -0.06250
C338        C  0.97640284  0.27383642  0.11683340    -0.17380
C339        C  0.95675813  0.28669946  0.15630960     0.10940
C340        C  0.93407710  0.30227312  0.13036588    -0.06180
C341        C  0.93123429  0.30371884  0.06506050    -0.17410
C342        C  0.95141994  0.29148955  0.02514254     0.10970
S343        S  0.96349142  0.28420929  0.23935751    -0.32380
S344        S  0.94648637  0.29834025  0.94282221    -0.32390
H345        H  0.97468055  0.29322124  0.92434523     0.28980
H346        H  0.95610424  0.31169257  0.25348967     0.28980
H347        H  0.99416079  0.26263351  0.13772934     0.19570
H348        H  0.91379906  0.31564274  0.04503029     0.19580
C349        C  0.32232634  0.03304836  0.38214066    -0.06250
C350        C  0.32285948  0.02158884  0.32160925    -0.17380
C351        C  0.34064839  0.03252223  0.27532577     0.10940
C352        C  0.35974675  0.05457059  0.29036504    -0.06180
C353        C  0.36039814  0.06498332  0.35212653    -0.17410
C354        C  0.34191294  0.05453546  0.39799225     0.10970
S355        S  0.33559371  0.01915746  0.19692481    -0.32380
S356        S  0.34455016  0.06928942  0.47565978    -0.32390
H357        H  0.33759749  0.04469286  0.50711564     0.28980
H358        H  0.33794402  0.04489290  0.16708053     0.28980
H359        H  0.30779019  0.00517406  0.30894249     0.19570
H360        H  0.37497060  0.08186874  0.36429567     0.19580
C361        C  0.30852121  0.21898261  0.36999016    -0.06250
C362        C  0.32613242  0.19683752  0.38722306    -0.17380
C363        C  0.34730981  0.18689916  0.34692728     0.10940
C364        C  0.35048850  0.19875461  0.28695901    -0.06180
C365        C  0.33353573  0.22143692  0.27039928    -0.17410
C366        C  0.31246282  0.23152250  0.31088342     0.10970
S367        S  0.36988800  0.15935821  0.37521865    -0.32380
S368        S  0.29013662  0.25916945  0.28239652    -0.32390
H369        H  0.26433271  0.24830826  0.30659535     0.28980
H370        H  0.39414966  0.16649466  0.33956098     0.28980
H371        H  0.32382512  0.18758662  0.43299301     0.19570
H372        H  0.33569565  0.23041334  0.22431050     0.19580
C373        C  0.02931115  0.27958750  0.03964806    -0.06250
C374        C  0.05269637  0.26262941  0.05630914    -0.17380
C375        C  0.07869921  0.27390671  0.08003975     0.10940
C376        C  0.08051298  0.30255126  0.09521415    -0.06180
C377        C  0.05660646  0.31905077  0.08101146    -0.17410
C378        C  0.03219791  0.30843373  0.05090811     0.10970
S379        S  0.10887617  0.25079364  0.08550825    -0.32380
S380        S  0.00616949  0.33356452  0.02622663    -0.32390
H381        H  0.00740167  0.32493310  0.96339911     0.28980
H382        H  0.12982287  0.27117349  0.07307155     0.28980
H383        H  0.05105568  0.24045069  0.04990509     0.19570
H384        H  0.05676328  0.34086826  0.09291436     0.19580
C385        C  0.19092489  0.28647591  0.36680040    -0.06250
C386        C  0.20378330  0.30252259  0.32043423    -0.17380
C387        C  0.18805391  0.31133634  0.26849562     0.10940
C388        C  0.15812334  0.30542680  0.26408276    -0.06180
C389        C  0.14526481  0.28901586  0.31024017    -0.17410
C390        C  0.16136661  0.27935597  0.36133353     0.10970
S391        S  0.20789476  0.32902329  0.20820412    -0.32380
S392        S  0.14273393  0.25898044  0.41898533    -0.32390
H393        H  0.15916839  0.26845409  0.47063034     0.28980
H394        H  0.19060096  0.31927837  0.15814281     0.28980
H395        H  0.22667756  0.30714256  0.32317738     0.19570
H396        H  0.12236900  0.28447922  0.30766866     0.19580
C397        C  0.08047917  0.45074708  0.09835934    -0.06250
C398        C  0.05462559  0.43657418  0.08405303    -0.17380
C399        C  0.03147850  0.44967821  0.05485446     0.10940
C400        C  0.03187221  0.47878245  0.04691509    -0.06180
C401        C  0.05789187  0.49291772  0.06002770    -0.17410
C402        C  0.08244296  0.47904019  0.08141254     0.10970
S403        S  0.00265285  0.42754321  0.02669867    -0.32380
S404        S  0.11569470  0.49852680  0.08191384    -0.32390
H405        H  0.13292721  0.47574139  0.06618359     0.28980
H406        H  0.99665674  0.44389535  0.97398425     0.28980
H407        H  0.05209182  0.41490890  0.09518709     0.19570
H408        H  0.05941571  0.51500816  0.05445023     0.19580
C409        C  0.16121032  0.44778626  0.25905891    -0.06250
C410        C  0.16283248  0.43365118  0.31628480    -0.17380
C411        C  0.18046616  0.44312745  0.36543541     0.10940
C412        C  0.19641283  0.46792391  0.35864238    -0.06180
C413        C  0.19381958  0.48270232  0.30242510    -0.17410
C414        C  0.17701485  0.47265232  0.25229955     0.10970
S415        S  0.18081892  0.42318771  0.43624521    -0.32380
S416        S  0.17827357  0.99164938  0.18015421    -0.32390
H417        H  0.17686626  0.46822469  0.14076006     0.28980
H418        H  0.20928155  0.41434068  0.42683477     0.28980
H419        H  0.15054941  0.41469294  0.32237996     0.19570
H420        H  0.20602181  0.00169528  0.29634112     0.19580
C421        C  0.35032464  0.30165310  0.73133937    -0.06250
C422        C  0.35976474  0.28362702  0.68413400    -0.17380
C423        C  0.34063025  0.27363023  0.63781562     0.10940
C424        C  0.31138525  0.28177915  0.63878109    -0.06180
C425        C  0.30191209  0.29921141  0.68677624    -0.17410
C426        C  0.32073501  0.30862829  0.73367336     0.10970
S427        S  0.35521898  0.25193335  0.57694274    -0.32380
S428        S  0.30536448  0.32904793  0.79601659    -0.32390
H429        H  0.32476293  0.32032867  0.84269749     0.28980
H430        H  0.33771551  0.26228527  0.52853274     0.28980
H431        H  0.38237886  0.27831265  0.68168444     0.19570
H432        H  0.27938149  0.30491740  0.68881226     0.19580
C433        C  0.33975375  0.44325980  0.74523707    -0.06250
C434        C  0.31906423  0.46309370  0.76029009    -0.17380
C435        C  0.30071365  0.47365695  0.71403623     0.10940
C436        C  0.30328688  0.46438205  0.65124915    -0.06180
C437        C  0.32390580  0.44452114  0.63638133    -0.17410
C438        C  0.34258364  0.43441097  0.68211888     0.10970
S439        S  0.27380886  0.49805609  0.73860593    -0.32380
S440        S  0.37059266  0.41142801  0.65598287    -0.32390
H441        H  0.39179232  0.42148332  0.69800791     0.28980
H442        H  0.25246490  0.98893747  0.69583220     0.28980
H443        H  0.31681694  0.46993072  0.80841910     0.19570
H444        H  0.32643498  0.43782561  0.58818423     0.19580
C445        C  0.02438072  0.23170543  0.94286852    -0.06250
C446        C  0.02224824  0.20268120  0.93847073    -0.17380
C447        C  0.03881764  0.18745363  0.89666253     0.10940
C448        C  0.06263694  0.20019595  0.86683881    -0.06180
C449        C  0.06706340  0.22881849  0.87745281    -0.17410
C450        C  0.04699941  0.24489813  0.91001502     0.10970
S451        S  0.02470778  0.15352102  0.87695548    -0.32380
S452        S  0.05004983  0.28176354  0.90064563    -0.32390
H453        H  0.02040230  0.28543822  0.89179734     0.28980
H454        H  0.02962977  0.15614283  0.81229195     0.28980
H455        H  0.00498610  0.19194612  0.96221923     0.19570
H456        H  0.08518151  0.23939679  0.85660288     0.19580
C457        C  0.13167915  0.19958380  0.68666175    -0.06250
C458        C  0.15134483  0.21825427  0.71463733    -0.17380
C459        C  0.17533904  0.22798984  0.68212353     0.10940
C460        C  0.17983754  0.21911021  0.61977701    -0.06180
C461        C  0.15945812  0.20151808  0.59074386    -0.17410
C462        C  0.13519661  0.19212385  0.62304738     0.10970
S463        S  0.20039976  0.25008492  0.72442080    -0.32380
S464        S  0.10927405  0.17111413  0.58037372    -0.32390
H465        H  0.08569981  0.17753822  0.61868527     0.28980
H466        H  0.22527803  0.23838234  0.69834589     0.28980
H467        H  0.14907483  0.22388100  0.76356533     0.19570
H468        H  0.16214386  0.19550732  0.54216347     0.19580
C469        C  0.02882455  0.02569564  0.95591316    -0.06250
C470        C  0.03888934  0.01074498  0.90400795    -0.17380
C471        C  0.05718730  0.02307151  0.86000124     0.10940
C472        C  0.06841806  0.05012622  0.87118733    -0.06180
C473        C  0.06027666  0.06381438  0.92657954    -0.17410
C474        C  0.04007087  0.05251293  0.96721781     0.10970
S475        S  0.06164580  0.00451642  0.78745328    -0.32380
S476        S  0.02903705  0.07398574  0.03162972    -0.32390
H477        H  0.03021313  0.05264628  0.07540759     0.28980
H478        H  0.05832297  0.02823955  0.75046090     0.28980
H479        H  0.03025361  0.49022213  0.89453680     0.19570
H480        H  0.06913619  0.08407060  0.93786195     0.19580
C481        C  0.15083664  0.05448477  0.71600545    -0.06250
C482        C  0.17923737  0.06487548  0.71751864    -0.17380
C483        C  0.19979609  0.05600574  0.67445442     0.10940
C484        C  0.19213491  0.03580156  0.62906977    -0.06180
C485        C  0.16412955  0.02464660  0.62885029    -0.17410
C486        C  0.14325503  0.03428731  0.67031319     0.10970
S487        S  0.23540075  0.07102713  0.68080821    -0.32380
S488        S  0.10700588  0.02162178  0.65843198    -0.32390
H489        H  0.09385854  0.04735668  0.66861329     0.28980
H490        H  0.25010097  0.04648998  0.66681372     0.28980
H491        H  0.18536012  0.08040304  0.75212182     0.19570
H492        H  0.15805310  0.00919047  0.59400676     0.19580
C493        C  0.47841472  0.22777060  0.06623864    -0.06250
C494        C  0.45444203  0.24357647  0.08416020    -0.17380
C495        C  0.43008891  0.23121042  0.11134229     0.10940
C496        C  0.43100563  0.20302391  0.12960221    -0.06180
C497        C  0.45596718  0.18802661  0.11597144    -0.17410
C498        C  0.47820428  0.19911518  0.08038975     0.10970
S499        S  0.39825632  0.25218754  0.11650040    -0.32380
S500        S  0.50447630  0.17523956  0.04945763    -0.32390
H501        H  0.49249509  0.15054994  0.07249109     0.28980
H502        H  0.37891303  0.23036391  0.10284757     0.28980
H503        H  0.45411206  0.26554487  0.07490874     0.19570
H504        H  0.45791319  0.16693820  0.13173829     0.19580
C505        C  0.58115000  0.20439894  0.11066514    -0.06250
C506        C  0.56317529  0.21984622  0.14972892    -0.17380
C507        C  0.53942251  0.23400830  0.12565854     0.10940
C508        C  0.53308807  0.23264637  0.06051757    -0.06180
C509        C  0.55258015  0.21890471  0.02091349    -0.17410
C510        C  0.57644346  0.20488390  0.04526993     0.10970
S511        S  0.51759267  0.25234818  0.18170677    -0.32380
S512        S  0.59936759  0.18700910  0.99077528    -0.32390
H513        H  0.62472875  0.18945247  0.02699294     0.28980
H514        H  0.50432063  0.27030286  0.13936831     0.28980
H515        H  0.56707679  0.22004583  0.19983810     0.19570
H516        H  0.54799255  0.21713543  0.97126810     0.19580
C517        C  0.43022887  0.30079553  0.89547778    -0.06250
C518        C  0.42776730  0.27220386  0.90831203    -0.17380
C519        C  0.45042947  0.25741212  0.93643991     0.10940
C520        C  0.47456942  0.27199941  0.96158604    -0.06180
C521        C  0.47574675  0.30080125  0.95287973    -0.17410
C522        C  0.45578150  0.31459669  0.91578905     0.10970
S523        S  0.44795693  0.22018333  0.93265287    -0.32380
S524        S  0.46742813  0.34812004  0.88835936    -0.32390
H525        H  0.45705799  0.34391660  0.82683107     0.28980
H526        H  0.47774338  0.21546436  0.92996049     0.28980
H527        H  0.40881042  0.26073630  0.89319061     0.19570
H528        H  0.49440215  0.31245532  0.96903896     0.19580
C529        C  0.52781227  0.26832542  0.95008068    -0.06250
C530        C  0.52857122  0.26100019  0.88628587    -0.17380
C531        C  0.54724937  0.27429420  0.84480217     0.10940
C532        C  0.56619757  0.29501515  0.86790877    -0.06180
C533        C  0.56688952  0.30098727  0.93234285    -0.17410
C534        C  0.54769155  0.28830103  0.97347066     0.10970
S535        S  0.54453227  0.26659921  0.76194656    -0.32380
S536        S  0.54824592  0.30046159  0.05346376    -0.32390
H537        H  0.51830097  0.29980198  0.06134457     0.28980
H538        H  0.52477528  0.24449302  0.76646947     0.28980
H539        H  0.51297144  0.24609667  0.86830245     0.19570
H540        H  0.58163007  0.31672239  0.95028301     0.19580
C541        C  0.56630586  0.45100516  0.87184960    -0.06250
C542        C  0.54911011  0.46943716  0.83818691    -0.17380
C543        C  0.52891304  0.48612632  0.86766117     0.10940
C544        C  0.52505358  0.48440311  0.93341996    -0.06180
C545        C  0.54331223  0.46688643  0.96782301    -0.17410
C546        C  0.56374916  0.45002912  0.93764708     0.10970
S547        S  0.50968945  0.00957762  0.81729407    -0.32380
S548        S  0.58661549  0.42768998  0.98320148    -0.32390
H549        H  0.57488899  0.43419215  0.04200480     0.28980
H550        H  0.50399686  0.02957229  0.86337637     0.28980
H551        H  0.55126472  0.47067707  0.78776947     0.19570
H552        H  0.54091047  0.46575290  0.01803655     0.19580
C553        C  0.47125466  0.48373048  0.94557263    -0.06250
C554        C  0.45417250  0.49594802  0.89928600    -0.17380
C555        C  0.43360647  0.48042905  0.86554003     0.10940
C556        C  0.42566260  0.45350564  0.88629213    -0.06180
C557        C  0.44043956  0.44285681  0.93859167    -0.17410
C558        C  0.46373723  0.45693154  0.96629478     0.10970
S559        S  0.42264917  0.99489261  0.79148071    -0.32380
S560        S  0.48251585  0.43947628  0.02874293    -0.32390
H561        H  0.49290299  0.46330937  0.05973963     0.28980
H562        H  0.42247145  0.46936835  0.75931002     0.28980
H563        H  0.45879942  0.01686505  0.88477055     0.19570
H564        H  0.43432949  0.42299467  0.95766948     0.19580
C565        C  0.57423106  0.05023974  0.11226443    -0.06250
C566        C  0.57461381  0.05137157  0.04671878    -0.17380
C567        C  0.55235944  0.03963833  0.01006049     0.10940
C568        C  0.52924960  0.02563543  0.03976975    -0.06180
C569        C  0.53038732  0.02255744  0.10518519    -0.17410
C570        C  0.55192387  0.03524482  0.14169550     0.10970
S571        S  0.55281140  0.04587171  0.92705446    -0.32380
S572        S  0.54785977  0.03368958  0.22557622    -0.32390
H573        H  0.55666754  0.06118657  0.23705679     0.28980
H574        H  0.58105645  0.05647664  0.92354638     0.28980
H575        H  0.59186105  0.06273565  0.02440717     0.19570
H576        H  0.51295215  0.01188205  0.12865583     0.19580
C577        C  0.47475251  0.03126969  0.03678764    -0.06250
C578        C  0.45214805  0.01510011  0.06110148    -0.17380
C579        C  0.42869994  0.02693799  0.09249630     0.10940
C580        C  0.42941936  0.05546368  0.10863847    -0.06180
C581        C  0.45238201  0.07153771  0.08558484    -0.17410
C582        C  0.47373079  0.06020865  0.04753854     0.10970
S583        S  0.39760144  0.50531008  0.10724643    -0.32380
S584        S  0.49859043  0.08422470  0.01281538    -0.32390
H585        H  0.49808938  0.07037265  0.95464149     0.28980
H586        H  0.40629051  0.98220137  0.07185392     0.28980
H587        H  0.45273777  0.49296255  0.05688516     0.19570
H588        H  0.45381440  0.09340880  0.09660323     0.19580
C589        C  0.50114796  0.51786667  0.00836454     0.00430
C590        C  0.49928940  0.99699683  0.96423870     0.00430
C591        C  0.50192330  0.75899325  0.98563858     0.00430
C592        C  0.50409591  0.74100970  0.03520550     0.00430
C593        C  0.12912973  0.56771476  0.75701792     0.03000
C594        C  0.12679577  0.59652165  0.75566541    -0.13150
C595        C  0.10446897  0.61030820  0.78654949     0.00500
C596        C  0.08442982  0.59424381  0.81983991    -0.11680
C597        C  0.08787451  0.56541825  0.82722188     0.02990
C598        C  0.11067277  0.55235218  0.79566932    -0.11100
H599        H  0.14268780  0.60791531  0.72953405     0.08580
H600        H  0.06596798  0.60417203  0.84052218     0.06110
H601        H  0.11433843  0.53043687  0.80114287     0.05960
C602        C  0.11179613  0.68449302  0.72856072     0.03000
C603        C  0.11368681  0.65573035  0.73213948    -0.13150
C604        C  0.10172097  0.64117502  0.78252998     0.00500
C605        C  0.08776841  0.65652550  0.82963225    -0.11680
C606        C  0.08178777  0.68490727  0.82205186     0.02990
C607        C  0.09451670  0.69873164  0.77120563    -0.11100
H608        H  0.12555225  0.64516299  0.69611141     0.08580
H609        H  0.08150412  0.64635896  0.87229427     0.06110
H610        H  0.09155381  0.72067197  0.76440378     0.05960
C611        C  0.35804901  0.93145518  0.79512783     0.03000
C612        C  0.37810674  0.94794790  0.82757761    -0.13150
C613        C  0.40245388  0.93597129  0.85597025     0.00500
C614        C  0.40478220  0.90673600  0.85461583    -0.11680
C615        C  0.38259947  0.88985268  0.82919914     0.02990
C616        C  0.35867091  0.90285214  0.80197869    -0.11100
H617        H  0.37513860  0.97006989  0.82786547     0.08580
H618        H  0.42424530  0.89715025  0.87172438     0.06110
H619        H  0.34108424  0.89096742  0.78154076     0.05960
C620        C  0.37159589  0.81569051  0.77325006     0.03000
C621        C  0.39083999  0.80117149  0.81162604    -0.13150
C622        C  0.40719446  0.81531815  0.85828536     0.00500
C623        C  0.40170218  0.84379734  0.86815694    -0.11680
C624        C  0.38538046  0.85902829  0.82474963     0.02990
C625        C  0.37158931  0.84450021  0.77575688    -0.11100
H626        H  0.39284413  0.77909547  0.80465531     0.08580
H627        H  0.41082306  0.85425856  0.90868906     0.06110
H628        H  0.35963340  0.85520569  0.73982297     0.05960
C629        C  0.14392619  0.93494593  0.20749076     0.03000
C630        C  0.14885861  0.90723561  0.19220976    -0.13150
C631        C  0.12942897  0.89200567  0.15429515     0.00500
C632        C  0.10846630  0.90701180  0.12069790    -0.11680
C633        C  0.10428766  0.93562287  0.13149478     0.02990
C634        C  0.12108620  0.94883475  0.17845259    -0.11100
H635        H  0.16741301  0.89752051  0.21321258     0.08580
H636        H  0.09469009  0.89646319  0.08736653     0.06110
H637        H  0.11624817  0.96973845  0.19322921     0.05960
C638        C  0.13991501  0.81859709  0.21539911     0.03000
C639        C  0.14214934  0.84718884  0.20772901    -0.13150
C640        C  0.12875346  0.86077485  0.15737395     0.00500
C641        C  0.11211648  0.84437773  0.11552167    -0.11680
C642        C  0.10547741  0.81635948  0.12857177     0.02990
C643        C  0.11989646  0.80357780  0.17885952    -0.11100
H644        H  0.15425658  0.85842667  0.24310115     0.08580
H645        H  0.10280183  0.85351572  0.07422511     0.06110
H646        H  0.11531937  0.78230549  0.19068979     0.05960
O647        O  0.27156639  0.78769630  0.56785550    -0.57950
C648        C  0.20980621  0.77519607  0.41578426     0.74680
O649        O  0.27431320  0.71332780  0.45306824    -0.59100
C650        C  0.28981627  0.77161448  0.59285376     0.74650
C651        C  0.20423566  0.72928929  0.58245699     0.77050
Cd652      Cd  0.24813677  0.75120602  0.50431851     1.37470
O653        O  0.22820116  0.79015878  0.44512553    -0.57940
O654        O  0.21194029  0.75445283  0.58490957    -0.56750
C655        C  0.28750822  0.72935974  0.41579463     0.77010
O656        O  0.21790662  0.71357089  0.54529811    -0.59120
O657        O  0.20923059  0.74968574  0.42824967    -0.57580
O658        O  0.28821228  0.74627245  0.57782477    -0.57570
O659        O  0.28225654  0.75491895  0.42038297    -0.56740
C660        C  0.37615238  0.56938393  0.24129311     0.03000
C661        C  0.39576139  0.55580685  0.20229004    -0.13150
C662        C  0.40739800  0.56924476  0.14970624     0.00500
C663        C  0.39987955  0.59716648  0.13938855    -0.11680
C664        C  0.38350537  0.61234784  0.18321293     0.02990
C665        C  0.37122094  0.59758473  0.23311043    -0.11100
H666        H  0.40188812  0.53491041  0.21372409     0.08580
H667        H  0.40751415  0.60701068  0.09751815     0.06110
H668        H  0.35792995  0.60763837  0.26743489     0.05960
C669        C  0.36848685  0.68573172  0.23832408     0.03000
C670        C  0.39061408  0.70049492  0.20897100    -0.13150
C671        C  0.40687741  0.68794553  0.16147025     0.00500
C672        C  0.40212206  0.65950905  0.14839459    -0.11680
C673        C  0.38209876  0.64359782  0.18227070     0.02990
C674        C  0.36349562  0.65795985  0.22247840    -0.11100
H675        H  0.39528837  0.72149114  0.22404019     0.08580
H676        H  0.41505288  0.64972968  0.11316816     0.06110
H677        H  0.34544085  0.64767470  0.24408619     0.05960
O678        O  0.27615111  0.96187909  0.55514527    -0.57950
C679        C  0.21595484  0.97903235  0.40816238     0.74680
O680        O  0.23074379  0.54058841  0.55482933    -0.59100
C681        C  0.28664202  0.97652180  0.59956508     0.74650
C682        C  0.29984701  0.52298208  0.42508681     0.77050
Cd683      Cd  0.25436032  0.50154228  0.50150737     1.37470
O684        O  0.22897907  0.96359037  0.44676439    -0.57940
O685        O  0.29387565  0.99745779  0.42805879    -0.56750
C686        C  0.21273704  0.52514373  0.58278117     0.77010
O687        O  0.28476211  0.53918287  0.45826658    -0.59120
O688        O  0.22099535  0.50476924  0.41294505    -0.57580
O689        O  0.28279836  0.50232107  0.59690185    -0.57570
O690        O  0.21319218  0.99959975  0.56967373    -0.56740
C691        C  0.00110524  0.76733255  0.01614249     0.00430
C692        C  0.99921263  0.74617219  0.97275832     0.00430
C693        C  0.00286322  0.51531948  0.98994934     0.00430
C694        C  0.00438623  0.99435449  0.03316931     0.00430
C695        C  0.86564360  0.56660241  0.78794931     0.03000
C696        C  0.88690294  0.55195055  0.82020889    -0.13150
C697        C  0.90730217  0.56619957  0.85779255     0.00500
C698        C  0.90648336  0.59537450  0.86110998    -0.11680
C699        C  0.88437463  0.61036441  0.83100663     0.02990
C700        C  0.86283810  0.59492933  0.79910992    -0.11100
H701        H  0.88795713  0.52968851  0.81483214     0.08580
H702        H  0.92361886  0.60593163  0.88632731     0.06110
H703        H  0.84401639  0.60460360  0.77937735     0.05960
C704        C  0.86545749  0.68389681  0.78057905     0.03000
C705        C  0.88312633  0.70003977  0.81953462    -0.13150
C706        C  0.90279736  0.68749895  0.86022748     0.00500
C707        C  0.90241364  0.65846530  0.86674857    -0.11680
C708        C  0.88423505  0.64163169  0.82849363     0.02990
C709        C  0.86680478  0.65512342  0.78375996    -0.11100
H710        H  0.88287692  0.72237208  0.81531125     0.08580
H711        H  0.91713477  0.64944152  0.90004243     0.06110
H712        H  0.85431293  0.64377733  0.74926177     0.05960
C713        C  0.87323014  0.93710647  0.24212005     0.03000
C714        C  0.89366999  0.95325544  0.21081277    -0.13150
C715        C  0.91435568  0.94053776  0.17292537     0.00500
C716        C  0.91650103  0.91148858  0.17149214    -0.11680
C717        C  0.89662830  0.89494123  0.20429092     0.02990
C718        C  0.87385923  0.90836397  0.23504920    -0.11100
H719        H  0.89355434  0.97557607  0.21575829     0.08580
H720        H  0.93402540  0.90223225  0.14592384     0.06110
H721        H  0.85649346  0.89661266  0.25570758     0.05960
C722        C  0.88263793  0.82155955  0.25971894     0.03000
C723        C  0.89729194  0.80570423  0.21512267    -0.13150
C724        C  0.91463086  0.81876316  0.17034630     0.00500
C725        C  0.91434703  0.84784030  0.16535610    -0.11680
C726        C  0.89923029  0.86405217  0.20911774     0.02990
C727        C  0.88577347  0.85031947  0.25899792    -0.11100
H728        H  0.89546575  0.78335288  0.21522838     0.08580
H729        H  0.92620156  0.85746312  0.12787526     0.06110
H730        H  0.87647856  0.86185266  0.29729434     0.05960
C731        C  0.63167953  0.56889720  0.23280128     0.03000
C732        C  0.61286234  0.55330443  0.19484020    -0.13150
C733        C  0.59636257  0.56619377  0.14825821     0.00500
C734        C  0.60045093  0.59465435  0.13664186    -0.11680
C735        C  0.61975005  0.61070439  0.17346019     0.02990
C736        C  0.63473586  0.59727171  0.22224194    -0.11100
H737        H  0.61050623  0.53127374  0.20258983     0.08580
H738        H  0.58815427  0.60405533  0.09937965     0.06110
H739        H  0.64880412  0.60861978  0.25381990     0.05960
C740        C  0.64721093  0.68366468  0.20316562     0.03000
C741        C  0.64727831  0.65515088  0.19207178    -0.13150
C742        C  0.62329682  0.64148419  0.16503190     0.00500
C743        C  0.60190973  0.65801153  0.13666543    -0.11680
C744        C  0.60373207  0.68714447  0.13985864     0.02990
C745        C  0.62556670  0.69974304  0.17610107    -0.11100
H746        H  0.66551976  0.64370352  0.20952691     0.08580
H747        H  0.58315590  0.64872206  0.11442180     0.06110
H748        H  0.62521148  0.72187293  0.18449911     0.05960
C749        C  0.61935695  0.93149447  0.74705397     0.03000
C750        C  0.60532535  0.94678634  0.79329705    -0.13150
C751        C  0.58656718  0.93364747  0.83521708     0.00500
C752        C  0.58485810  0.90443548  0.83554339    -0.11680
C753        C  0.60003893  0.88854718  0.79073532     0.02990
C754        C  0.61478422  0.90298888  0.74360201    -0.11100
H755        H  0.60828386  0.96902881  0.79572795     0.08580
H756        H  0.57128432  0.89458844  0.86974978     0.06110
H757        H  0.62369458  0.89233653  0.70369863     0.05960
C758        C  0.62331612  0.81485953  0.75076068     0.03000
C759        C  0.60478510  0.79887266  0.78719276    -0.13150
C760        C  0.58459002  0.81174679  0.82608463     0.00500
C761        C  0.58238893  0.84085527  0.82665929    -0.11680
C762        C  0.60149302  0.85736469  0.79170341     0.02990
C763        C  0.62300175  0.84361735  0.75723472    -0.11100
H764        H  0.60612333  0.77651177  0.78541764     0.08580
H765        H  0.56573357  0.85018652  0.85463511     0.06110
H766        H  0.64006680  0.85485709  0.73437203     0.05960
O767        O  0.77984490  0.71413305  0.54888975    -0.57950
C768        C  0.71854308  0.72715295  0.40465134     0.74680
O769        O  0.72353494  0.78896420  0.54742312    -0.59100
C770        C  0.79137156  0.72944780  0.59088689     0.74650
C771        C  0.79623905  0.77699587  0.42566225     0.77050
Cd772      Cd  0.75308732  0.75197921  0.50112580     1.37460
O773        O  0.73020639  0.71257044  0.44683323    -0.57940
O774        O  0.79470638  0.75115954  0.43378207    -0.56750
C775        C  0.70974299  0.77272266  0.58305606     0.77010
O776        O  0.77808140  0.79177589  0.45464924    -0.59120
O777        O  0.72291159  0.75297556  0.40802594    -0.57580
O778        O  0.78457835  0.75474609  0.59156352    -0.57570
O779        O  0.71566260  0.74727724  0.57928556    -0.56740
O780        O  0.72365572  0.53923446  0.45449385    -0.57950
C781        C  0.78688043  0.52230855  0.60056393     0.74680
O782        O  0.72333819  0.96153206  0.55238750    -0.59100
C783        C  0.71051255  0.52368273  0.41511877     0.74650
C784        C  0.79104622  0.97902607  0.42095183     0.77050
Cd785      Cd  0.74903118  0.50063605  0.50510921     1.37470
O786        O  0.77449164  0.53832626  0.56203692    -0.57940
O787        O  0.78577024  0.50460344  0.42510644    -0.56750
C788        C  0.70623098  0.97667552  0.58339773     0.77010
O789        O  0.77646910  0.96298358  0.45558852    -0.59120
O790        O  0.78182176  0.99671479  0.59402187    -0.57580
O791        O  0.71519189  0.99798420  0.41850838    -0.57570
O792        O  0.70869936  0.50255223  0.57654763    -0.56740
C793        C  0.64353825  0.80210451  0.70573095    -0.06250
C794        C  0.66328457  0.78246366  0.72722987    -0.17380
C795        C  0.68529782  0.77279281  0.68850988     0.10940
C796        C  0.68760691  0.78278841  0.62659926    -0.06180
C797        C  0.66750426  0.80194368  0.60468632    -0.17410
C798        C  0.64518501  0.81118576  0.64288090     0.10970
S799        S  0.71071910  0.74897956  0.72212994    -0.32380
S800        S  0.61897662  0.83387500  0.60787581    -0.32390
H801        H  0.59565071  0.82477234  0.64422503     0.28980
H802        H  0.73498285  0.76023956  0.69221597     0.28980
H803        H  0.66233193  0.77552556  0.77528961     0.19570
H804        H  0.66867667  0.80913371  0.55682051     0.19580
C805        C  0.68434550  0.96510096  0.62575112    -0.06250
C806        C  0.65753313  0.97830672  0.63020761    -0.17380
C807        C  0.63562321  0.96783128  0.66832186     0.10940
C808        C  0.64092867  0.94409581  0.70474329    -0.06180
C809        C  0.66795810  0.93126970  0.70085342    -0.17410
C810        C  0.68958250  0.94142893  0.66214999     0.10970
S811        S  0.60119110  0.48484303  0.66560157    -0.32380
S812        S  0.72374732  0.92395091  0.66390773    -0.32390
H813        H  0.74041123  0.94839947  0.66412466     0.28790
H814        H  0.58456989  0.96071810  0.67389414     0.28980
H815        H  0.65327615  0.49644141  0.60217976     0.19570
H816        H  0.67248366  0.91330075  0.72924570     0.19580
C817        C  0.66670446  0.69504660  0.25245069    -0.06250
C818        C  0.66702161  0.68151863  0.31056402    -0.17380
C819        C  0.68419572  0.69094408  0.36027396     0.10940
C820        C  0.70101129  0.71512404  0.35309271    -0.06180
C821        C  0.70047170  0.72891563  0.29527004    -0.17410
C822        C  0.68398078  0.71890082  0.24464577     0.10970
S823        S  0.68215736  0.67221340  0.43265778    -0.32380
S824        S  0.68674647  0.73695870  0.17133375    -0.32390
H825        H  0.68198676  0.71356889  0.13294577     0.28980
H826        H  0.71094302  0.66346452  0.42903668     0.28980
H827        H  0.65346340  0.66344329  0.31759440     0.19570
H828        H  0.71351945  0.74737658  0.28896278     0.19580
C829        C  0.69029319  0.53474798  0.36802051    -0.06250
C830        C  0.67182910  0.55618563  0.38576506    -0.17380
C831        C  0.65108565  0.56637001  0.34417080     0.10940
C832        C  0.64938480  0.55569136  0.28225306    -0.06180
C833        C  0.66745837  0.53385601  0.26498606    -0.17410
C834        C  0.68791392  0.52340081  0.30686038     0.10970
S835        S  0.62686330  0.59232164  0.37373287    -0.32380
S836        S  0.71146612  0.99678206  0.27790555    -0.32390
H837        H  0.73636769  0.00725768  0.30813508     0.28980
H838        H  0.60358057  0.58500398  0.33417573     0.28980
H839        H  0.67298555  0.56451473  0.43299237     0.19570
H840        H  0.66658830  0.52576323  0.21753678     0.19580
C841        C  0.86133727  0.80933998  0.30340814    -0.06250
C842        C  0.83412957  0.82191071  0.30671197    -0.17380
C843        C  0.81268837  0.81205538  0.34625188     0.10940
C844        C  0.81817785  0.78879918  0.38379615    -0.06180
C845        C  0.84516202  0.77587502  0.38011192    -0.17410
C846        C  0.86693019  0.78615945  0.34141619     0.10970
S847        S  0.77841633  0.82931970  0.34392901    -0.32380
S848        S  0.90159055  0.76976592  0.34571622    -0.32390
H849        H  0.91743157  0.79448665  0.33936983     0.28980
H850        H  0.76200008  0.80471318  0.34266423     0.28980
H851        H  0.82926313  0.83941224  0.27712708     0.19570
H852        H  0.84964133  0.75807725  0.40908129     0.19580
C853        C  0.81291422  0.96875357  0.37689508    -0.06250
C854        C  0.81465808  0.98093386  0.31744906    -0.17380
C855        C  0.83379519  0.97111042  0.27215875     0.10940
C856        C  0.85251017  0.94919362  0.28719387    -0.06180
C857        C  0.85123234  0.93760193  0.34741256    -0.17410
C858        C  0.83179885  0.94707016  0.39215586     0.10970
S859        S  0.83191034  0.98631610  0.19540679    -0.32380
S860        S  0.83304698  0.93130902  0.46840875    -0.32390
H861        H  0.82841615  0.95603198  0.50191566     0.28980
H862        H  0.83780669  0.96176696  0.16232368     0.28980
H863        H  0.80013736  0.49753925  0.30525706     0.19570
H864        H  0.86578644  0.92107135  0.35999079     0.19580
C865        C  0.84687355  0.69671547  0.73262178    -0.06250
C866        C  0.85094079  0.68922185  0.66961690    -0.17380
C867        C  0.83360141  0.70000378  0.62213152     0.10940
C868        C  0.81143670  0.71852685  0.63786460    -0.06180
C869        C  0.80787198  0.72664825  0.70052325    -0.17410
C870        C  0.82498781  0.71562434  0.74813895     0.10970
S871        S  0.84161241  0.69020943  0.54249890    -0.32380
S872        S  0.81675408  0.72541629  0.82764926    -0.32390
H873        H  0.82348812  0.69970673  0.85414570     0.28980
H874        H  0.83516692  0.71613451  0.51663405     0.28980
H875        H  0.86799813  0.67503189  0.65729211     0.19570
H876        H  0.79082641  0.74086077  0.71279136     0.19580
C877        C  0.80689146  0.53282720  0.64963305    -0.06250
C878        C  0.82519609  0.55491849  0.63464467    -0.17380
C879        C  0.84575740  0.56489740  0.67746601     0.10940
C880        C  0.84738893  0.55348542  0.73838183    -0.06180
C881        C  0.82956414  0.53094499  0.75307381    -0.17410
C882        C  0.80931462  0.52055584  0.70953619     0.10970
S883        S  0.86988202  0.59171219  0.65052936    -0.32380
S884        S  0.78620454  0.99267833  0.73465654    -0.32390
H885        H  0.76120534  0.00286316  0.70540842     0.28980
H886        H  0.89362523  0.58348684  0.68710347     0.28980
H887        H  0.82411857  0.56394218  0.58838441     0.19570
H888        H  0.83059445  0.52213621  0.79952055     0.19580
C889        C  0.97489071  0.52543041  0.96269873    -0.06250
C890        C  0.96919761  0.51812254  0.89974804    -0.17380
C891        C  0.94795639  0.53118128  0.86419490     0.10940
C892        C  0.93006516  0.55100703  0.89280568    -0.06180
C893        C  0.93410487  0.55684375  0.95691359    -0.17410
C894        C  0.95623243  0.54461581  0.99211062     0.10970
S895        S  0.94688188  0.52325892  0.78145197    -0.32380
S896        S  0.95864154  0.55525283  0.07316541    -0.32390
H897        H  0.98285396  0.54027221  0.08985429     0.28980
H898        H  0.94062323  0.55037013  0.76251651     0.28980
H899        H  0.98255662  0.50303555  0.87653220     0.19570
H900        H  0.92008381  0.57158562  0.97968952     0.19580
C901        C  0.97854853  0.98551277  0.07029856    -0.06250
C902        C  0.95399494  0.97479322  0.03901809    -0.17380
C903        C  0.93217724  0.96098423  0.07166827     0.10940
C904        C  0.93475630  0.95767619  0.13707859    -0.06180
C905        C  0.95816226  0.96968528  0.16892538    -0.17410
C906        C  0.97994373  0.98356822  0.13672669     0.10970
S907        S  0.90239568  0.94669724  0.02687297    -0.32380
S908        S  0.00932836  0.99708473  0.18414337    -0.32390
H909        H  0.01849510  0.01743724  0.14251219     0.28980
H910        H  0.88192905  0.94829780  0.07491020     0.28980
H911        H  0.95266536  0.97538461  0.98845428     0.19570
H912        H  0.95993079  0.96745180  0.21927168     0.19580
C913        C  0.97078654  0.73497284  0.95004962    -0.06250
C914        C  0.96542723  0.73738328  0.88554121    -0.17380
C915        C  0.94381697  0.72205777  0.85545905     0.10940
C916        C  0.92562932  0.70463205  0.89083721    -0.06180
C917        C  0.93014767  0.70284482  0.95581132    -0.17410
C918        C  0.95296406  0.71712526  0.98555926     0.10970
S919        S  0.94274924  0.72376368  0.77100859    -0.32380
S920        S  0.95951735  0.70925474  0.06687196    -0.32390
H921        H  0.98935538  0.71425206  0.06711685     0.28980
H922        H  0.93685055  0.69543372  0.76168797     0.28980
H923        H  0.97974083  0.74992802  0.85738883     0.19570
H924        H  0.91659070  0.68922123  0.98310699     0.19580
C925        C  0.97502646  0.77678496  0.05143230    -0.06250
C926        C  0.97640303  0.77383572  0.11683277    -0.17380
C927        C  0.95675837  0.78669878  0.15630905     0.10940
C928        C  0.93407732  0.80227246  0.13036543    -0.06180
C929        C  0.93123445  0.80371816  0.06506005    -0.17410
C930        C  0.95142004  0.79148882  0.02514201     0.10970
S931        S  0.96349172  0.78420861  0.23935694    -0.32380
S932        S  0.94648635  0.79833945  0.94282168    -0.32390
H933        H  0.97468052  0.79322045  0.92434457     0.28980
H934        H  0.95610450  0.81169187  0.25348917     0.28980
H935        H  0.99416100  0.76263280  0.13772864     0.19570
H936        H  0.91379920  0.81564205  0.04502992     0.19580
C937        C  0.32232784  0.53304867  0.38214057    -0.06250
C938        C  0.32286074  0.52158930  0.32160902    -0.17380
C939        C  0.34064958  0.53252271  0.27532545     0.10940
C940        C  0.35974810  0.55457093  0.29036475    -0.06180
C941        C  0.36039973  0.56498351  0.35212636    -0.17410
C942        C  0.34191461  0.55453562  0.39799220     0.10970
S943        S  0.33559460  0.51915817  0.19692437    -0.32380
S944        S  0.34455215  0.56928935  0.47565990    -0.32390
H945        H  0.33759932  0.54469277  0.50711552     0.28980
H946        H  0.33794495  0.54489367  0.16708039     0.28980
H947        H  0.30779132  0.50517463  0.30894224     0.19570
H948        H  0.37497232  0.58186883  0.36429549     0.19580
C949        C  0.30852108  0.71898262  0.36998928    -0.06250
C950        C  0.32613237  0.69683759  0.38722220    -0.17380
C951        C  0.34730982  0.68689931  0.34692646     0.10940
C952        C  0.35048848  0.69875477  0.28695818    -0.06180
C953        C  0.33353561  0.72143702  0.27039844    -0.17410
C954        C  0.31246266  0.73152252  0.31088255     0.10970
S955        S  0.36988814  0.65935847  0.37521789    -0.32380
S956        S  0.29013636  0.75916940  0.28239565    -0.32390
H957        H  0.26433249  0.74830814  0.30659452     0.28980
H958        H  0.39414979  0.66649505  0.33956033     0.28980
H959        H  0.32382510  0.68758668  0.43299215     0.19570
H960        H  0.33569552  0.73041345  0.22430967     0.19580
C961        C  0.02931125  0.77958680  0.03964711    -0.06250
C962        C  0.05269648  0.76262873  0.05630825    -0.17380
C963        C  0.07869933  0.77390607  0.08003870     0.10940
C964        C  0.08051309  0.80255064  0.09521279    -0.06180
C965        C  0.05660657  0.81905012  0.08101007    -0.17410
C966        C  0.03219800  0.80843304  0.05090692     0.10970
S967        S  0.10887628  0.75079300  0.08550745    -0.32380
S968        S  0.00616954  0.83356378  0.02622535    -0.32390
H969        H  0.00740176  0.82493234  0.96339784     0.28980
H970        H  0.12982299  0.77117283  0.07307058     0.28980
H971        H  0.05105579  0.74045000  0.04990438     0.19570
H972        H  0.05676338  0.84086763  0.09291279     0.19580
C973        C  0.19092472  0.78647591  0.36679967    -0.06250
C974        C  0.20378315  0.80252266  0.32043365    -0.17380
C975        C  0.18805382  0.81133637  0.26849491     0.10940
C976        C  0.15812329  0.80542670  0.26408174    -0.06180
C977        C  0.14526472  0.78901573  0.31023906    -0.17410
C978        C  0.16136647  0.77935589  0.36133255     0.10970
S979        S  0.20789474  0.82902339  0.20820361    -0.32380
S980        S  0.14273375  0.75898029  0.41898419    -0.32390
H981        H  0.15916812  0.76845395  0.47062932     0.28980
H982        H  0.19060113  0.81927832  0.15814212     0.28980
H983        H  0.22667739  0.80714270  0.32317700     0.19570
H984        H  0.12236894  0.78447900  0.30766734     0.19580
C985        C  0.08047875  0.95074653  0.09835710    -0.06250
C986        C  0.05462515  0.93657367  0.08405083    -0.17380
C987        C  0.03147798  0.94967779  0.05485273     0.10940
C988        C  0.03187169  0.97878206  0.04691374    -0.06180
C989        C  0.05789141  0.99291727  0.06002609    -0.17410
C990        C  0.08244253  0.97903967  0.08141048     0.10970
S991        S  0.00265222  0.92754289  0.02669712    -0.32380
S992        S  0.11569430  0.99852623  0.08191153    -0.32390
H993        H  0.13292678  0.97574080  0.06618124     0.28980
H994        H  0.99665590  0.94389520  0.97398308     0.28980
H995        H  0.05209140  0.91490836  0.09518464     0.19570
H996        H  0.05941526  0.01500772  0.05444884     0.19580
C997        C  0.16120976  0.94778578  0.25905685    -0.06250
C998        C  0.16283182  0.93365058  0.31628259    -0.17380
C999        C  0.18046530  0.94312681  0.36543355     0.10940
C1000       C  0.19641187  0.96792336  0.35864102    -0.06180
C1001       C  0.19381874  0.98270188  0.30242384    -0.17410
C1002       C  0.17701420  0.97265192  0.25229796     0.10970
S1003       S  0.18081794  0.92318689  0.43624309    -0.32380
S1004       S  0.17827413  0.49164961  0.18015557    -0.32390
H1005       H  0.17686582  0.96822456  0.14075839     0.28980
H1006       H  0.20928068  0.91434009  0.42683306     0.28980
H1007       H  0.15054881  0.91469227  0.32237736     0.19570
H1008       H  0.20602273  0.50169565  0.29634200     0.19580
C1009       C  0.35032439  0.80165312  0.73133866    -0.06250
C1010       C  0.35976451  0.78362707  0.68413326    -0.17380
C1011       C  0.34063002  0.77363022  0.63781494     0.10940
C1012       C  0.31138499  0.78177904  0.63878050    -0.06180
C1013       C  0.30191180  0.79921125  0.68677573    -0.17410
C1014       C  0.32073473  0.80862820  0.73367278     0.10970
S1015       S  0.35521878  0.75193340  0.57694199    -0.32380
S1016       S  0.30536418  0.82904777  0.79601609    -0.32390
H1017       H  0.32476271  0.82032859  0.84269689     0.28980
H1018       H  0.33771527  0.76228530  0.52853204     0.28980
H1019       H  0.38237865  0.77831278  0.68168360     0.19570
H1020       H  0.27938119  0.80491718  0.68881183     0.19580
C1021       C  0.33975259  0.94325982  0.74523677    -0.06250
C1022       C  0.31906292  0.96309354  0.76029008    -0.17380
C1023       C  0.30071210  0.97365665  0.71403645     0.10940
C1024       C  0.30328523  0.96438179  0.65124931    -0.06180
C1025       C  0.32390429  0.94452104  0.63638124    -0.17410
C1026       C  0.34258235  0.93441102  0.68211853     0.10970
S1027       S  0.27380716  0.99805555  0.73860651    -0.32380
S1028       S  0.37059150  0.91142830  0.65598209    -0.32390
H1029       H  0.39179118  0.92148374  0.69800689     0.28980
H1030       H  0.25246660  0.48893809  0.69583154     0.28980
H1031       H  0.31681569  0.96993052  0.80841912     0.19570
H1032       H  0.32643340  0.93782555  0.58818409     0.19580
C1033       C  0.02438083  0.73170470  0.94286774    -0.06250
C1034       C  0.02224845  0.70268047  0.93847016    -0.17380
C1035       C  0.03881796  0.68745288  0.89666217     0.10940
C1036       C  0.06263715  0.70019526  0.86683819    -0.06180
C1037       C  0.06706348  0.72881784  0.87745189    -0.17410
C1038       C  0.04699945  0.74489744  0.91001409     0.10970
S1039       S  0.02470841  0.65352008  0.87695582    -0.32380
S1040       S  0.05004973  0.78176285  0.90064450    -0.32390
H1041       H  0.02040219  0.78543741  0.89179617     0.28980
H1042       H  0.02963032  0.65614168  0.81229221     0.28980
H1043       H  0.00498635  0.69194537  0.96221876     0.19570
H1044       H  0.08518151  0.73939617  0.85660177     0.19580
C1045       C  0.13167915  0.69958321  0.68666084    -0.06250
C1046       C  0.15134476  0.71825376  0.71463635    -0.17380
C1047       C  0.17533893  0.72798938  0.68212252     0.10940
C1048       C  0.17983743  0.71910976  0.61977598    -0.06180
C1049       C  0.15945807  0.70151755  0.59074289    -0.17410
C1050       C  0.13519662  0.69212322  0.62304651     0.10970
S1051       S  0.20039963  0.75008448  0.72441979    -0.32380
S1052       S  0.10927417  0.67111329  0.58037305    -0.32390
H1053       H  0.08569991  0.67753726  0.61868467     0.28980
H1054       H  0.22527791  0.73838191  0.69834487     0.28980
H1055       H  0.14907477  0.72388049  0.76356436     0.19570
H1056       H  0.16214382  0.69550678  0.54216251     0.19580
C1057       C  0.02882543  0.52569563  0.95591364    -0.06250
C1058       C  0.03889066  0.51074470  0.90400925    -0.17380
C1059       C  0.05718900  0.52307099  0.86000295     0.10940
C1060       C  0.06841961  0.55012579  0.87118867    -0.06180
C1061       C  0.06027777  0.56381421  0.92658026    -0.17410
C1062       C  0.04007165  0.55251298  0.96721801     0.10970
S1063       S  0.06164823  0.50451547  0.78745581    -0.32380
S1064       S  0.02903718  0.57398613  0.03162879    -0.32390
H1065       H  0.03021406  0.55264712  0.07540775     0.28980
H1066       H  0.05832519  0.52823833  0.75046260     0.28980
H1067       H  0.03025223  0.99022246  0.89453527     0.19570
H1068       H  0.06913717  0.58407051  0.93786244     0.19580
C1069       C  0.15083865  0.55448455  0.71600762    -0.06250
C1070       C  0.17923923  0.56487568  0.71752024    -0.17380
C1071       C  0.19979799  0.55600607  0.67445590     0.10940
C1072       C  0.19213700  0.53580161  0.62907176    -0.06180
C1073       C  0.16413184  0.52464621  0.62885296    -0.17410
C1074       C  0.14325727  0.53428677  0.67031591     0.10970
S1075       S  0.23540242  0.57102803  0.68080884    -0.32380
S1076       S  0.10700831  0.52162066  0.65843524    -0.32390
H1077       H  0.09386063  0.54735549  0.66861547     0.28980
H1078       H  0.25010300  0.54649109  0.66681439     0.28980
H1079       H  0.18536182  0.58040349  0.75212299     0.19570
H1080       H  0.15805552  0.50918985  0.59400983     0.19580
C1081       C  0.47841481  0.72777127  0.06623817    -0.06250
C1082       C  0.45444208  0.74357711  0.08415966    -0.17380
C1083       C  0.43008899  0.73121102  0.11134180     0.10940
C1084       C  0.43100580  0.70302453  0.12960185    -0.06180
C1085       C  0.45596742  0.68802730  0.11597130    -0.17410
C1086       C  0.47820445  0.69911587  0.08038946     0.10970
S1087       S  0.39825635  0.75218805  0.11649984    -0.32380
S1088       S  0.50447647  0.67524025  0.04945734    -0.32390
H1089       H  0.49249532  0.65055063  0.07249094     0.28980
H1090       H  0.37891312  0.73036437  0.10284697     0.28980
H1091       H  0.45411206  0.76554549  0.07490807     0.19570
H1092       H  0.45791351  0.66693892  0.13173834     0.19580
C1093       C  0.58114999  0.70439956  0.11066485    -0.06250
C1094       C  0.56317529  0.71984691  0.14972854    -0.17380
C1095       C  0.53942256  0.73400903  0.12565807     0.10940
C1096       C  0.53308815  0.73264709  0.06051709    -0.06180
C1097       C  0.55258023  0.71890539  0.02091308    -0.17410
C1098       C  0.57644349  0.70488452  0.04526961     0.10970
S1099       S  0.51759274  0.75234898  0.18170621    -0.32380
S1100       S  0.59936759  0.68700964  0.99077506    -0.32390
H1101       H  0.62472875  0.68945297  0.02699276     0.28980
H1102       H  0.50432069  0.77030362  0.13936765     0.28980
H1103       H  0.56707677  0.72004654  0.19983773     0.19570
H1104       H  0.54799265  0.71713610  0.97126769     0.19580
C1105       C  0.43022876  0.80079592  0.89547686    -0.06250
C1106       C  0.42776727  0.77220426  0.90831126    -0.17380
C1107       C  0.45042947  0.75741260  0.93643925     0.10940
C1108       C  0.47456941  0.77199996  0.96158529    -0.06180
C1109       C  0.47574667  0.80080179  0.95287875    -0.17410
C1110       C  0.45578136  0.81459716  0.91578804     0.10970
S1111       S  0.44795701  0.72018380  0.93265247    -0.32380
S1112       S  0.46742786  0.84812054  0.88835828    -0.32390
H1113       H  0.45705770  0.84391705  0.82683002     0.28980
H1114       H  0.47774347  0.71546489  0.92996009     0.28980
H1115       H  0.40881042  0.76073664  0.89318990     0.19570
H1116       H  0.49440205  0.81245592  0.96903788     0.19580
C1117       C  0.52781227  0.76832604  0.95008007    -0.06250
C1118       C  0.52857127  0.76100073  0.88628532    -0.17380
C1119       C  0.54724946  0.77429470  0.84480163     0.10940
C1120       C  0.56619763  0.79501567  0.86790820    -0.06180
C1121       C  0.56688954  0.80098787  0.93234225    -0.17410
C1122       C  0.54769152  0.78830168  0.97347003     0.10970
S1123       S  0.54453245  0.76659961  0.76194605    -0.32380
S1124       S  0.54824580  0.80046234  0.05346306    -0.32390
H1125       H  0.51830085  0.79980275  0.06134370     0.28980
H1126       H  0.52477545  0.74449344  0.76646899     0.28980
H1127       H  0.51297152  0.74609718  0.86830192     0.19570
H1128       H  0.58163006  0.81672301  0.95028238     0.19580
C1129       C  0.56630525  0.95100552  0.87184940    -0.06250
C1130       C  0.54910933  0.96943738  0.83818677    -0.17380
C1131       C  0.52891211  0.98612636  0.86766110     0.10940
C1132       C  0.52505270  0.98440311  0.93341991    -0.06180
C1133       C  0.54331151  0.96688654  0.96782287    -0.17410
C1134       C  0.56374857  0.95002941  0.93764687     0.10970
S1135       S  0.50969060  0.50957771  0.81729403    -0.32380
S1136       S  0.58661510  0.92769042  0.98320119    -0.32390
H1137       H  0.57488859  0.93419249  0.04200455     0.28980
H1138       H  0.50399786  0.52957232  0.86337638     0.28980
H1139       H  0.55126391  0.97067733  0.78776933     0.19570
H1140       H  0.54090978  0.96575297  0.01803642     0.19580
C1141       C  0.47125376  0.98373053  0.94557270    -0.06250
C1142       C  0.45417148  0.99594828  0.89928655    -0.17380
C1143       C  0.43360534  0.98042947  0.86554048     0.10940
C1144       C  0.42566156  0.95350593  0.88629197    -0.06180
C1145       C  0.44043860  0.94285692  0.93859122    -0.17410
C1146       C  0.46373634  0.95693152  0.96629438     0.10970
S1147       S  0.42265056  0.49489179  0.79147966    -0.32380
S1148       S  0.48251510  0.93947599  0.02874193    -0.32390
H1149       H  0.49290225  0.96330894  0.05973913     0.28980
H1150       H  0.42247018  0.96936937  0.75931026     0.28980
H1151       H  0.45880045  0.51686472  0.88476959     0.19570
H1152       H  0.43432858  0.92299470  0.95766871     0.19580
C1153       C  0.57423151  0.55024021  0.11226441    -0.06250
C1154       C  0.57461444  0.55137191  0.04671876    -0.17380
C1155       C  0.55236022  0.53963854  0.01006030     0.10940
C1156       C  0.52925032  0.52563566  0.03976942    -0.06180
C1157       C  0.53038790  0.52255777  0.10518490    -0.17410
C1158       C  0.55192431  0.53524525  0.14169535     0.10970
S1159       S  0.55281244  0.54587170  0.92705420    -0.32380
S1160       S  0.54786003  0.53369011  0.22557603    -0.32390
H1161       H  0.55666771  0.56118713  0.23705654     0.28980
H1162       H  0.58105749  0.55647663  0.92354641     0.28980
H1163       H  0.59186171  0.56273601  0.02440728     0.19570
H1164       H  0.51295269  0.51188237  0.12865542     0.19580
C1165       C  0.47475327  0.53126999  0.03678674    -0.06250
C1166       C  0.45214878  0.51510049  0.06110069    -0.17380
C1167       C  0.42870068  0.52693845  0.09249541     0.10940
C1168       C  0.42942016  0.55546416  0.10863739    -0.06180
C1169       C  0.45238278  0.57153813  0.08558349    -0.17410
C1170       C  0.47373155  0.56020898  0.04753730     0.10970
S1171       S  0.39760074  0.00530954  0.10724720    -0.32380
S1172       S  0.49859123  0.58422493  0.01281391    -0.32390
H1173       H  0.49809030  0.57037268  0.95464025     0.28980
H1174       H  0.40629116  0.48220185  0.07185326     0.28980
H1175       H  0.45273708  0.99296219  0.05688570     0.19570
H1176       H  0.45381517  0.59340925  0.09660164     0.19580
loop_ 
_geom_bond_atom_site_label_1 
_geom_bond_atom_site_label_2 
_geom_bond_distance 
_geom_bond_site_symmetry_2 
_ccdc_geom_bond_type 
C1          C568   1.505       .  S
C1          C577   1.519       .  S
C1          C590   1.376   1_544  D
C2          C544   1.501       .  S
C2          C553   1.496       .  S
C2          C589   1.376   1_556  D
C3          C520   1.509       .  S
C3          C529   1.495       .  S
C3            C4   1.378   1_556  D
C4          C493   1.509       .  S
C4          C508   1.505       .  S
C5            C6   1.398       .  A
C5           C10   1.406       .  A
C5          C481   1.486       .  S
C6            C7   1.403       .  A
C6           H11   1.079       .  S
C7            C8   1.407       .  A
C7           C16   1.502       .  S
C8            C9   1.414       .  A
C8           H12   1.081       .  S
C9           C10   1.410       .  A
C9          C472   1.502       .  S
C10          H13   1.082       .  S
C14          C15   1.397       .  A
C14          C19   1.399       .  A
C14         C457   1.482       .  S
C15          C16   1.406       .  A
C15          H20   1.078       .  S
C16          C17   1.410       .  A
C17          C18   1.413       .  A
C17          H21   1.079       .  S
C18          C19   1.410       .  A
C18         C448   1.505       .  S
C19          H22   1.082       .  S
C23          C24   1.396       .  A
C23          C28   1.392       .  A
C23         C433   1.478       .  S
C24          C25   1.409       .  A
C24          H29   1.079       .  S
C25          C26   1.419       .  A
C25         C556   1.504       .  S
C26          C27   1.411       .  A
C26          H30   1.081       .  S
C27          C28   1.404       .  A
C27          C36   1.499       .  S
C28          H31   1.081       .  S
C32          C33   1.403       .  A
C32          C37   1.393       .  A
C32         C421   1.483       .  S
C33          C34   1.415       .  A
C33          H38   1.081       .  S
C34          C35   1.417       .  A
C34         C517   1.508       .  S
C35          C36   1.408       .  A
C35          H39   1.080       .  S
C36          C37   1.402       .  A
C37          H40   1.081       .  S
C41          C42   1.398       .  A
C41          C46   1.402       .  A
C41         C409   1.485       .  S
C42          C43   1.406       .  A
C42          H47   1.080       .  S
C43          C44   1.413       .  A
C43          C52   1.512       .  S
C44          C45   1.416       .  A
C44          H48   1.075       .  S
C45          C46   1.410       .  A
C45         C397   1.505       .  S
C46          H49   1.082       .  S
C50          C51   1.396       .  A
C50          C55   1.402       .  A
C50         C388   1.485       .  S
C51          C52   1.407       .  A
C51          H56   1.078       .  S
C52          C53   1.410       .  A
C53          C54   1.417       .  A
C53          H57   1.078       .  S
C54          C55   1.410       .  A
C54         C376   1.504       .  S
C55          H58   1.081       .  S
O59          C62   1.271       .  A
O59         Cd64   2.457       .  S
C60         C385   1.470       .  S
C60          O69   1.264       .  A
C60          O65   1.272       .  A
O61          C67   1.272       .  A
O61         Cd64   2.460       .  S
C62         C424   1.474       .  S
C62          O70   1.265       .  A
C63         C460   1.473       .  S
C63          O68   1.271       .  A
C63          O66   1.266       .  A
Cd64         O71   2.408       .  S
Cd64         O70   2.438       .  S
Cd64         O69   2.418       .  S
Cd64         O65   2.459       .  S
Cd64         O68   2.459       .  S
Cd64         O66   2.420       .  S
C67         C361   1.475       .  S
C67          O71   1.265       .  A
C72          C73   1.402       .  A
C72          C77   1.396       .  A
C72         C352   1.485       .  S
C73          C74   1.410       .  A
C73          H78   1.081       .  S
C74          C75   1.416       .  A
C74         C580   1.508       .  S
C75          C76   1.415       .  A
C75          H79   1.077       .  S
C76          C77   1.409       .  A
C76          C85   1.513       .  S
C77          H80   1.077       .  S
C81          C82   1.401       .  A
C81          C86   1.399       .  A
C81         C364   1.478       .  S
C82          C83   1.406       .  A
C82          H87   1.082       .  S
C83          C84   1.416       .  A
C83         C496   1.502       .  S
C84          C85   1.409       .  A
C84          H88   1.075       .  S
C85          C86   1.406       .  A
C86          H89   1.080       .  S
O90          C93   1.270       .  A
O90        Cd683   2.461       .  S
C91         C412   1.482       .  S
C91          O96   1.269       .  A
C91         O688   1.267       .  A
O92          C98   1.272       .  A
O92         Cd95   2.466       .  S
C93         C436   1.470       .  S
C93         O689   1.263       .  A
C94         C349   1.477       .  S
C94          O99   1.270       .  A
C94         O685   1.265   1_545  A
Cd95        O101   2.417       .  S
Cd95        O100   2.440       .  S
Cd95         O99   2.482       .  S
Cd95        O678   2.461   1_545  S
Cd95        O690   2.413   1_545  S
Cd95        O684   2.455   1_545  S
Cd95        O685   2.431   1_545  S
O96        Cd683   2.455       .  S
O97         C682   1.265       .  A
O97        Cd683   2.431       .  S
C98         C484   1.474       .  S
C98         O690   1.264   1_545  A
O100        C679   1.267   1_545  A
O101        C681   1.263   1_545  A
O102        C686   1.264       .  A
O102       Cd683   2.413       .  S
C103        C337   1.503   1_455  S
C103        C373   1.513       .  S
C103        C104   1.376   1_454  D
C104        C325   1.497       .  S
C104        C445   1.510   1_655  S
C105        C301   1.505   1_455  S
C105        C469   1.497       .  S
C105        C694   1.378   1_546  D
C106        C313   1.504   1_455  S
C106        C400   1.514       .  S
C106        C693   1.378   1_554  D
C107        C108   1.399       .  A
C107        C112   1.396       .  A
C107        C292   1.485       .  S
C108        C109   1.408       .  A
C108        H113   1.083       .  S
C109        C110   1.413       .  A
C109        C304   1.491       .  S
C110        C111   1.414       .  A
C110        H114   1.079       .  S
C111        C112   1.410       .  A
C111        C120   1.513       .  S
C112        H115   1.078       .  S
C116        C117   1.393       .  A
C116        C121   1.395       .  A
C116        C277   1.476       .  S
C117        C118   1.400       .  A
C117        H122   1.084       .  S
C118        C119   1.412       .  A
C118        C328   1.484       .  S
C119        C120   1.417       .  A
C119        H123   1.079       .  S
C120        C121   1.413       .  A
C121        H124   1.077       .  S
C125        C126   1.401       .  A
C125        C130   1.397       .  A
C125        C268   1.486       .  S
C126        C127   1.403       .  A
C126        H131   1.084       .  S
C127        C128   1.409       .  A
C127        C316   1.476       .  S
C128        C129   1.410       .  A
C128        H132   1.081       .  S
C129        C130   1.409       .  A
C129        C138   1.504       .  S
C130        H133   1.081       .  S
C134        C135   1.402       .  A
C134        C139   1.397       .  A
C134        C253   1.487       .  S
C135        C136   1.405       .  A
C135        H140   1.083       .  S
C136        C137   1.411       .  A
C136        C340   1.481       .  S
C137        C138   1.410       .  A
C137        H141   1.081       .  S
C138        C139   1.407       .  A
C139        H142   1.081       .  S
C143        C144   1.398       .  A
C143        C148   1.398       .  A
C143        C244   1.484       .  S
C144        C145   1.403       .  A
C144        H149   1.084       .  S
C145        C146   1.412       .  A
C145        C565   1.485       .  S
C146        C147   1.410       .  A
C146        H150   1.080       .  S
C147        C148   1.413       .  A
C147        C154   1.508       .  S
C148        H151   1.078       .  S
C152        C153   1.397       .  A
C152        C157   1.399       .  A
C152        C229   1.481       .  S
C153        C154   1.407       .  A
C153        H158   1.081       .  S
C154        C155   1.415       .  A
C155        C156   1.411       .  A
C155        H159   1.081       .  S
C156        C157   1.402       .  A
C156        C505   1.481       .  S
C157        H160   1.084       .  S
C161        C162   1.397       .  A
C161        C166   1.394       .  A
C161        C220   1.484       .  S
C162        C163   1.405       .  A
C162        H167   1.084       .  S
C163        C164   1.414       .  A
C163        C541   1.488       .  S
C164        C165   1.418       .  A
C164        H168   1.079       .  S
C165        C166   1.408       .  A
C165        C174   1.510       .  S
C166        H169   1.079       .  S
C170        C171   1.397       .  A
C170        C175   1.396       .  A
C170        C205   1.483       .  S
C171        C172   1.403       .  A
C171        H176   1.084       .  S
C172        C173   1.412       .  A
C172        C532   1.481       .  S
C173        C174   1.410       .  A
C173        H177   1.080       .  S
C174        C175   1.413       .  A
C175        H178   1.079       .  S
O179        C182   1.270       .  A
O179       Cd184   2.444       .  S
C180        C232   1.476       .  S
C180        O189   1.265       .  A
C180        O185   1.268       .  A
O181        C187   1.270       .  A
O181       Cd184   2.468       .  S
C182        C280   1.467       .  S
C182        O190   1.266       .  A
C183        C256   1.475       .  S
C183        O188   1.271       .  A
C183        O186   1.264       .  A
Cd184       O191   2.429       .  S
Cd184       O190   2.413       .  S
Cd184       O189   2.422       .  S
Cd184       O185   2.452       .  S
Cd184       O188   2.459       .  S
Cd184       O186   2.418       .  S
C187        C208   1.474       .  S
C187        O191   1.265       .  A
O192        C195   1.272       .  A
O192       Cd197   2.466       .  S
C193        C289   1.478       .  S
C193        O198   1.271       .  A
C193        O790   1.264   1_545  A
O194        C200   1.271       .  A
O194       Cd785   2.455       .  S
C195        C241   1.476       .  S
C195        O791   1.266   1_545  A
C196        C265   1.476       .  S
C196        O201   1.271       .  A
C196        O787   1.265       .  A
Cd197       O204   2.426       .  S
Cd197       O198   2.469       .  S
Cd197       O199   2.431       .  S
Cd197       O782   2.455   1_545  S
Cd197       O791   2.417   1_545  S
Cd197       O790   2.432   1_545  S
Cd197       O789   2.466   1_545  S
O199        C784   1.265   1_545  A
C200        C217   1.475       .  S
C200        O792   1.265       .  A
O201       Cd785   2.466       .  S
O202        C781   1.264       .  A
O202       Cd785   2.432       .  S
O203        C783   1.266       .  A
O203       Cd785   2.417       .  S
O204        C788   1.265   1_545  A
C205        C206   1.402       .  A
C205        C210   1.417       .  A
C206        C207   1.401       .  A
C206        H215   1.083       .  S
C207        C208   1.415       .  A
C207        S211   1.804       .  S
C208        C209   1.400       .  A
C209        C210   1.398       .  A
C209        H216   1.083       .  S
C210        S212   1.806       .  S
S211        H214   1.407       .  S
S212        H213   1.407       .  S
C217        C218   1.407       .  A
C217        C222   1.410       .  A
C218        C219   1.402       .  A
C218        H815   1.084       .  S
C219        C220   1.413       .  A
C219        S811   1.804       .  S
C220        C221   1.407       .  A
C221        C222   1.394       .  A
C221        H228   1.084       .  S
C222        S224   1.803       .  S
S223        C807   1.804       .  S
S223        H814   1.406       .  S
S224        H225   1.407       .  S
H226        S811   1.406       .  S
H227        C806   1.084       .  S
C229        C230   1.407       .  A
C229        C234   1.411       .  A
C230        C231   1.393       .  A
C230        H239   1.085       .  S
C231        C232   1.410       .  A
C231        S235   1.800       .  S
C232        C233   1.407       .  A
C233        C234   1.400       .  A
C233        H240   1.084       .  S
C234        S236   1.803       .  S
S235        H238   1.407       .  S
S236        H237   1.406       .  S
C241        C242   1.402       .  A
C241        C246   1.415       .  A
C242        C243   1.399       .  A
C242        H251   1.083       .  S
C243        C244   1.416       .  A
C243        S247   1.805       .  S
C244        C245   1.403       .  A
C245        C246   1.399       .  A
C245        H252   1.083       .  S
C246        S836   1.804   1_545  S
S247        H250   1.407       .  S
S248        C834   1.804       .  S
S248        H249   1.407       .  S
C253        C254   1.408       .  A
C253        C258   1.413       .  A
C254        C255   1.394       .  A
C254        H263   1.084       .  S
C255        C256   1.410       .  A
C255        S259   1.803       .  S
C256        C257   1.407       .  A
C257        C258   1.401       .  A
C257        H264   1.084       .  S
C258        S260   1.801       .  S
S259        H262   1.407       .  S
S260        H261   1.406       .  S
C265        C266   1.406       .  A
C265        C270   1.410       .  A
C266        C267   1.401       .  A
C266        H863   1.084       .  S
C267        C268   1.413       .  A
C267        S271   1.803       .  S
C268        C269   1.408       .  A
C269        C270   1.396       .  A
C269        H276   1.085       .  S
C270        S272   1.803       .  S
S271        H274   1.406       .  S
S272        H273   1.407       .  S
H275        C854   1.084       .  S
C277        C278   1.405       .  A
C277        C282   1.412       .  A
C278        C279   1.396       .  A
C278        H287   1.085       .  S
C279        C280   1.410       .  A
C279        S283   1.803       .  S
C280        C281   1.402       .  A
C281        C282   1.396       .  A
C281        H288   1.085       .  S
C282        S284   1.803       .  S
S283        H286   1.407       .  S
S284        H285   1.406       .  S
C289        C290   1.400       .  A
C289        C294   1.418       .  A
C290        C291   1.396       .  A
C290        H299   1.084       .  S
C291        C292   1.418       .  A
C291        S295   1.807       .  S
C292        C293   1.402       .  A
C293        C294   1.403       .  A
C293        H300   1.083       .  S
C294        S884   1.803   1_545  S
S295        H298   1.407       .  S
S296        C882   1.803       .  S
S296        H297   1.407       .  S
C301        C302   1.409       .  A
C301        C306   1.420       .  A
C302        C303   1.397       .  A
C302        H311   1.081       .  S
C303        C304   1.412       .  A
C303        S307   1.804       .  S
C304        C305   1.406       .  A
C305        C306   1.404       .  A
C305        H312   1.084       .  S
C306        S308   1.803   1_556  S
S307        H310   1.407       .  S
S308        H309   1.387       .  S
C313        C314   1.409       .  A
C313        C318   1.423       .  A
C314        C315   1.402       .  A
C314        H323   1.081   1_554  S
C315        C316   1.411       .  A
C315        S319   1.804       .  S
C316        C317   1.396       .  A
C317        C318   1.397       .  A
C317        H324   1.083       .  S
C318        S320   1.806   1_655  S
S319        H322   1.406       .  S
S320        H321   1.397       .  S
C325        C326   1.403       .  A
C325        C330   1.419       .  A
C326        C327   1.392       .  A
C326        H335   1.084       .  S
C327        C328   1.415       .  A
C327        S331   1.805       .  S
C328        C329   1.404       .  A
C329        C330   1.404       .  A
C329        H336   1.084       .  S
C330        S332   1.803   1_556  S
S331        H334   1.407       .  S
S332        H333   1.404       .  S
C337        C338   1.405       .  A
C337        C342   1.425       .  A
C338        C339   1.394       .  A
C338        H347   1.085       .  S
C339        C340   1.411       .  A
C339        S343   1.802       .  S
C340        C341   1.401       .  A
C341        C342   1.403       .  A
C341        H348   1.084       .  S
C342        S344   1.804   1_554  S
S343        H346   1.406       .  S
S344        H345   1.393       .  S
C349        C350   1.402       .  A
C349        C354   1.412       .  A
C350        C351   1.397       .  A
C350        H359   1.085       .  S
C351        C352   1.414       .  A
C351        S355   1.802       .  S
C352        C353   1.407       .  A
C353        C354   1.402       .  A
C353        H360   1.084       .  S
C354        S356   1.802       .  S
S355        H358   1.406       .  S
S356        H357   1.407       .  S
C361        C362   1.402       .  A
C361        C366   1.417       .  A
C362        C363   1.397       .  A
C362        H371   1.083       .  S
C363        C364   1.415       .  A
C363        S367   1.806       .  S
C364        C365   1.401       .  A
C365        C366   1.399       .  A
C365        H372   1.083       .  S
C366        S368   1.804       .  S
S367        H370   1.407       .  S
S368        H369   1.408       .  S
C373        C374   1.411       .  A
C373        C378   1.418       .  A
C374        C375   1.409       .  A
C374        H383   1.082       .  S
C375        C376   1.421       .  A
C375        S379   1.803       .  S
C376        C377   1.404       .  A
C377        C378   1.390       .  A
C377        H384   1.083       .  S
C378        S380   1.799       .  S
S379        H382   1.407       .  S
S380        H381   1.403   1_554  S
C385        C386   1.397       .  A
C385        C390   1.415       .  A
C386        C387   1.394       .  A
C386        H395   1.085       .  S
C387        C388   1.418       .  A
C387        S391   1.805       .  S
C388        C389   1.404       .  A
C389        C390   1.402       .  A
C389        H396   1.084       .  S
C390        S392   1.804       .  S
S391        H394   1.407       .  S
S392        H393   1.407       .  S
C397        C398   1.407       .  A
C397        C402   1.420       .  A
C398        C399   1.396       .  A
C398        H407   1.082       .  S
C399        C400   1.419       .  A
C399        S403   1.802       .  S
C400        C401   1.408       .  A
C401        C402   1.402       .  A
C401        H408   1.077       .  S
C402        S404   1.801       .  S
S403        H406   1.407   1_454  S
S404        H405   1.407       .  S
C409        C410   1.406       .  A
C409        C414   1.412       .  A
C410        C411   1.397       .  A
C410        H419   1.085       .  S
C411        C412   1.413       .  A
C411        S415   1.799       .  S
C412        C413   1.406       .  A
C413        C414   1.400       .  A
C413       H1008   1.084       .  S
C414       S1004   1.800       .  S
S415        H418   1.407       .  S
S416       C1002   1.800       .  S
S416       H1005   1.406       .  S
H417       S1004   1.406       .  S
H420       C1001   1.084   1_545  S
C421        C422   1.402       .  A
C421        C426   1.418       .  A
C422        C423   1.404       .  A
C422        H431   1.084       .  S
C423        C424   1.417       .  A
C423        S427   1.803       .  S
C424        C425   1.398       .  A
C425        C426   1.394       .  A
C425        H432   1.085       .  S
C426        S428   1.806       .  S
S427        H430   1.407       .  S
S428        H429   1.407       .  S
C433        C434   1.400       .  A
C433        C438   1.418       .  A
C434        C435   1.401       .  A
C434        H443   1.083       .  S
C435        C436   1.416       .  A
C435        S439   1.803       .  S
C436        C437   1.398       .  A
C437        C438   1.394       .  A
C437        H444   1.084       .  S
C438        S440   1.806       .  S
S439       H1030   1.407       .  S
S440        H441   1.407       .  S
H442       S1027   1.407       .  S
C445        C446   1.408       .  A
C445        C450   1.417       .  A
C446        C447   1.393       .  A
C446        H455   1.083       .  S
C447        C448   1.419       .  A
C447        S451   1.807       .  S
C448        C449   1.413       .  A
C449        C450   1.403       .  A
C449        H456   1.081       .  S
C450        S452   1.800       .  S
S451        H454   1.407       .  S
S452        H453   1.400       .  S
C457        C458   1.405       .  A
C457        C462   1.413       .  A
C458        C459   1.397       .  A
C458        H467   1.083       .  S
C459        C460   1.413       .  A
C459        S463   1.804       .  S
C460        C461   1.404       .  A
C461        C462   1.400       .  A
C461        H468   1.083       .  S
C462        S464   1.804       .  S
S463        H466   1.407       .  S
S464        H465   1.407       .  S
C469        C470   1.403       .  A
C469        C474   1.412       .  A
C470        C471   1.404       .  A
C470       H1067   1.084   1_545  S
C471        C472   1.422       .  A
C471        S475   1.798       .  S
C472        C473   1.406       .  A
C473        C474   1.394       .  A
C473        H480   1.084       .  S
C474        S476   1.797   1_556  S
S475        H478   1.406       .  S
S476        H477   1.398       .  S
H479       C1058   1.084       .  S
C481        C482   1.407       .  A
C481        C486   1.415       .  A
C482        C483   1.398       .  A
C482        H491   1.083       .  S
C483        C484   1.411       .  A
C483        S487   1.803       .  S
C484        C485   1.403       .  A
C485        C486   1.398       .  A
C485        H492   1.084       .  S
C486        S488   1.801       .  S
S487        H490   1.405       .  S
S488        H489   1.406       .  S
C493        C494   1.409       .  A
C493        C498   1.420       .  A
C494        C495   1.406       .  A
C494        H503   1.082       .  S
C495        C496   1.421       .  A
C495        S499   1.803       .  S
C496        C497   1.403       .  A
C497        C498   1.393       .  A
C497        H504   1.080       .  S
C498        S500   1.811       .  S
S499        H502   1.407       .  S
S500        H501   1.407       .  S
C505        C506   1.400       .  A
C505        C510   1.411       .  A
C506        C507   1.399       .  A
C506        H515   1.083       .  S
C507        C508   1.419       .  A
C507        S511   1.806       .  S
C508        C509   1.410       .  A
C509        C510   1.402       .  A
C509        H516   1.082   1_554  S
C510        S512   1.803   1_554  S
S511        H514   1.401       .  S
S512        H513   1.406   1_556  S
C517        C518   1.415       .  A
C517        C522   1.419       .  A
C518        C519   1.410       .  A
C518        H527   1.082       .  S
C519        C520   1.418       .  A
C519        S523   1.804       .  S
C520        C521   1.407       .  A
C521        C522   1.392       .  A
C521        H528   1.082       .  S
C522        S524   1.808       .  S
S523        H526   1.405       .  S
S524        H525   1.407       .  S
C529        C530   1.405       .  A
C529        C534   1.415       .  A
C530        C531   1.400       .  A
C530        H539   1.083       .  S
C531        C532   1.411       .  A
C531        S535   1.807       .  S
C532        C533   1.403       .  A
C533        C534   1.398       .  A
C533        H540   1.084       .  S
C534        S536   1.801   1_556  S
S535        H538   1.407       .  S
S536        H537   1.402       .  S
C541        C542   1.400       .  A
C541        C546   1.411       .  A
C542        C543   1.393       .  A
C542        H551   1.084       .  S
C543        C544   1.419       .  A
C543       S1135   1.805       .  S
C544        C545   1.409       .  A
C545        C546   1.412       .  A
C545        H552   1.080   1_556  S
C546        S548   1.805       .  S
S547       C1131   1.805   1_545  S
S547        H550   1.402       .  S
S548        H549   1.407   1_556  S
C553        C554   1.399       .  A
C553        C558   1.414       .  A
C554        C555   1.400       .  A
C554       H1151   1.080       .  S
C555        C556   1.425       .  A
C555       S1147   1.804       .  S
C556        C557   1.408       .  A
C557        C558   1.397       .  A
C557        H564   1.083       .  S
C558        S560   1.805   1_556  S
S559       C1143   1.804       .  S
S559       H1150   1.407       .  S
S560        H561   1.404       .  S
H562       S1147   1.407       .  S
H563       C1142   1.080   1_545  S
C565        C566   1.401       .  A
C565        C570   1.413       .  A
C566        C567   1.404       .  A
C566        H575   1.083       .  S
C567        C568   1.420       .  A
C567        S571   1.800   1_554  S
C568        C569   1.406       .  A
C569        C570   1.397       .  A
C569        H576   1.085       .  S
C570        S572   1.804       .  S
S571        H574   1.406       .  S
S572        H573   1.407       .  S
C577        C578   1.408       .  A
C577        C582   1.417       .  A
C578        C579   1.406       .  A
C578       H1175   1.074   1_545  S
C579        C580   1.419       .  A
C579       S1171   1.807       .  S
C580        C581   1.408       .  A
C581        C582   1.399       .  A
C581        H588   1.083       .  S
C582        S584   1.798       .  S
S583       C1167   1.807       .  S
S583       H1174   1.407       .  S
S584        H585   1.406   1_554  S
H586       S1171   1.407   1_565  S
H587       C1166   1.074       .  S
C589       C1156   1.505       .  S
C589       C1165   1.519       .  S
C590       C1132   1.501       .  S
C590       C1141   1.496       .  S
C591       C1108   1.509       .  S
C591       C1117   1.495       .  S
C591        C592   1.378   1_556  D
C592       C1081   1.509       .  S
C592       C1096   1.505       .  S
C593        C594   1.398       .  A
C593        C598   1.406       .  A
C593       C1069   1.486       .  S
C594        C595   1.403       .  A
C594        H599   1.079       .  S
C595        C596   1.407       .  A
C595        C604   1.502       .  S
C596        C597   1.414       .  A
C596        H600   1.081       .  S
C597        C598   1.410       .  A
C597       C1060   1.502       .  S
C598        H601   1.082       .  S
C602        C603   1.397       .  A
C602        C607   1.399       .  A
C602       C1045   1.482       .  S
C603        C604   1.406       .  A
C603        H608   1.078       .  S
C604        C605   1.410       .  A
C605        C606   1.413       .  A
C605        H609   1.079       .  S
C606        C607   1.410       .  A
C606       C1036   1.505       .  S
C607        H610   1.082       .  S
C611        C612   1.396       .  A
C611        C616   1.392       .  A
C611       C1021   1.478       .  S
C612        C613   1.409       .  A
C612        H617   1.079       .  S
C613        C614   1.419       .  A
C613       C1144   1.504       .  S
C614        C615   1.411       .  A
C614        H618   1.081       .  S
C615        C616   1.404       .  A
C615        C624   1.499       .  S
C616        H619   1.081       .  S
C620        C621   1.403       .  A
C620        C625   1.393       .  A
C620       C1009   1.483       .  S
C621        C622   1.415       .  A
C621        H626   1.081       .  S
C622        C623   1.417       .  A
C622       C1105   1.508       .  S
C623        C624   1.408       .  A
C623        H627   1.080       .  S
C624        C625   1.402       .  A
C625        H628   1.081       .  S
C629        C630   1.398       .  A
C629        C634   1.402       .  A
C629        C997   1.485       .  S
C630        C631   1.406       .  A
C630        H635   1.080       .  S
C631        C632   1.413       .  A
C631        C640   1.512       .  S
C632        C633   1.416       .  A
C632        H636   1.075       .  S
C633        C634   1.410       .  A
C633        C985   1.505       .  S
C634        H637   1.082       .  S
C638        C639   1.396       .  A
C638        C643   1.402       .  A
C638        C976   1.485       .  S
C639        C640   1.407       .  A
C639        H644   1.078       .  S
C640        C641   1.410       .  A
C641        C642   1.417       .  A
C641        H645   1.078       .  S
C642        C643   1.410       .  A
C642        C964   1.504       .  S
C643        H646   1.081       .  S
O647        C650   1.271       .  A
O647       Cd652   2.457       .  S
C648        C973   1.470       .  S
C648        O657   1.264       .  A
C648        O653   1.272       .  A
O649        C655   1.272       .  A
O649       Cd652   2.460       .  S
C650       C1012   1.474       .  S
C650        O658   1.265       .  A
C651       C1048   1.473       .  S
C651        O656   1.271       .  A
C651        O654   1.266       .  A
Cd652       O659   2.408       .  S
Cd652       O658   2.438       .  S
Cd652       O657   2.418       .  S
Cd652       O653   2.459       .  S
Cd652       O656   2.459       .  S
Cd652       O654   2.420       .  S
C655        C949   1.475       .  S
C655        O659   1.265       .  A
C660        C661   1.402       .  A
C660        C665   1.396       .  A
C660        C940   1.485       .  S
C661        C662   1.410       .  A
C661        H666   1.081       .  S
C662        C663   1.416       .  A
C662       C1168   1.508       .  S
C663        C664   1.415       .  A
C663        H667   1.077       .  S
C664        C665   1.409       .  A
C664        C673   1.513       .  S
C665        H668   1.077       .  S
C669        C670   1.401       .  A
C669        C674   1.399       .  A
C669        C952   1.478       .  S
C670        C671   1.406       .  A
C670        H675   1.082       .  S
C671        C672   1.416       .  A
C671       C1084   1.502       .  S
C672        C673   1.409       .  A
C672        H676   1.075       .  S
C673        C674   1.406       .  A
C674        H677   1.080       .  S
O678        C681   1.270       .  A
C679       C1000   1.482       .  S
C679        O684   1.269       .  A
O680        C686   1.272       .  A
O680       Cd683   2.466       .  S
C681       C1024   1.470       .  S
C682        C937   1.477       .  S
C682        O687   1.270       .  A
Cd683       O689   2.417       .  S
Cd683       O688   2.440       .  S
Cd683       O687   2.482       .  S
C686       C1072   1.474       .  S
C691        C925   1.503   1_455  S
C691        C961   1.513       .  S
C691        C692   1.376   1_454  D
C692        C913   1.497       .  S
C692       C1033   1.510   1_655  S
C693        C889   1.505   1_455  S
C693       C1057   1.497       .  S
C694        C901   1.504   1_455  S
C694        C988   1.514       .  S
C695        C696   1.399       .  A
C695        C700   1.396       .  A
C695        C880   1.485       .  S
C696        C697   1.408       .  A
C696        H701   1.083       .  S
C697        C698   1.413       .  A
C697        C892   1.491       .  S
C698        C699   1.414       .  A
C698        H702   1.079       .  S
C699        C700   1.410       .  A
C699        C708   1.513       .  S
C700        H703   1.078       .  S
C704        C705   1.393       .  A
C704        C709   1.395       .  A
C704        C865   1.476       .  S
C705        C706   1.400       .  A
C705        H710   1.084       .  S
C706        C707   1.412       .  A
C706        C916   1.484       .  S
C707        C708   1.417       .  A
C707        H711   1.079       .  S
C708        C709   1.413       .  A
C709        H712   1.077       .  S
C713        C714   1.401       .  A
C713        C718   1.397       .  A
C713        C856   1.486       .  S
C714        C715   1.403       .  A
C714        H719   1.084       .  S
C715        C716   1.409       .  A
C715        C904   1.476       .  S
C716        C717   1.410       .  A
C716        H720   1.081       .  S
C717        C718   1.409       .  A
C717        C726   1.504       .  S
C718        H721   1.081       .  S
C722        C723   1.402       .  A
C722        C727   1.397       .  A
C722        C841   1.487       .  S
C723        C724   1.405       .  A
C723        H728   1.083       .  S
C724        C725   1.411       .  A
C724        C928   1.481       .  S
C725        C726   1.410       .  A
C725        H729   1.081       .  S
C726        C727   1.407       .  A
C727        H730   1.081       .  S
C731        C732   1.398       .  A
C731        C736   1.398       .  A
C731        C832   1.484       .  S
C732        C733   1.403       .  A
C732        H737   1.084       .  S
C733        C734   1.412       .  A
C733       C1153   1.485       .  S
C734        C735   1.410       .  A
C734        H738   1.080       .  S
C735        C736   1.413       .  A
C735        C742   1.508       .  S
C736        H739   1.078       .  S
C740        C741   1.397       .  A
C740        C745   1.399       .  A
C740        C817   1.481       .  S
C741        C742   1.407       .  A
C741        H746   1.081       .  S
C742        C743   1.415       .  A
C743        C744   1.411       .  A
C743        H747   1.081       .  S
C744        C745   1.402       .  A
C744       C1093   1.481       .  S
C745        H748   1.084       .  S
C749        C750   1.397       .  A
C749        C754   1.394       .  A
C749        C808   1.484       .  S
C750        C751   1.405       .  A
C750        H755   1.084       .  S
C751        C752   1.414       .  A
C751       C1129   1.488       .  S
C752        C753   1.418       .  A
C752        H756   1.079       .  S
C753        C754   1.408       .  A
C753        C762   1.510       .  S
C754        H757   1.079       .  S
C758        C759   1.397       .  A
C758        C763   1.396       .  A
C758        C793   1.483       .  S
C759        C760   1.403       .  A
C759        H764   1.084       .  S
C760        C761   1.412       .  A
C760       C1120   1.481       .  S
C761        C762   1.410       .  A
C761        H765   1.080       .  S
C762        C763   1.413       .  A
C763        H766   1.079       .  S
O767        C770   1.270       .  A
O767       Cd772   2.444       .  S
C768        C820   1.476       .  S
C768        O777   1.265       .  A
C768        O773   1.268       .  A
O769        C775   1.270       .  A
O769       Cd772   2.468       .  S
C770        C868   1.467       .  S
C770        O778   1.266       .  A
C771        C844   1.475       .  S
C771        O776   1.271       .  A
C771        O774   1.264       .  A
Cd772       O779   2.429       .  S
Cd772       O778   2.413       .  S
Cd772       O777   2.422       .  S
Cd772       O773   2.452       .  S
Cd772       O776   2.459       .  S
Cd772       O774   2.418       .  S
C775        C796   1.474       .  S
C775        O779   1.265       .  A
O780        C783   1.272       .  A
O780       Cd785   2.466       .  S
C781        C877   1.478       .  S
C781        O786   1.271       .  A
O782        C788   1.271       .  A
C783        C829   1.476       .  S
C784        C853   1.476       .  S
C784        O789   1.271       .  A
Cd785       O792   2.426       .  S
Cd785       O786   2.469       .  S
Cd785       O787   2.431       .  S
C788        C805   1.475       .  S
C793        C794   1.402       .  A
C793        C798   1.417       .  A
C794        C795   1.401       .  A
C794        H803   1.083       .  S
C795        C796   1.415       .  A
C795        S799   1.804       .  S
C796        C797   1.400       .  A
C797        C798   1.398       .  A
C797        H804   1.083       .  S
C798        S800   1.806       .  S
S799        H802   1.407       .  S
S800        H801   1.407       .  S
C805        C806   1.407       .  A
C805        C810   1.410       .  A
C806        C807   1.402       .  A
C807        C808   1.413       .  A
C808        C809   1.407       .  A
C809        C810   1.394       .  A
C809        H816   1.084       .  S
C810        S812   1.803       .  S
S812        H813   1.407       .  S
C817        C818   1.407       .  A
C817        C822   1.411       .  A
C818        C819   1.393       .  A
C818        H827   1.085       .  S
C819        C820   1.410       .  A
C819        S823   1.800       .  S
C820        C821   1.407       .  A
C821        C822   1.400       .  A
C821        H828   1.084       .  S
C822        S824   1.803       .  S
S823        H826   1.407       .  S
S824        H825   1.406       .  S
C829        C830   1.402       .  A
C829        C834   1.415       .  A
C830        C831   1.399       .  A
C830        H839   1.083       .  S
C831        C832   1.416       .  A
C831        S835   1.805       .  S
C832        C833   1.403       .  A
C833        C834   1.399       .  A
C833        H840   1.083       .  S
S835        H838   1.407       .  S
S836        H837   1.407   1_565  S
C841        C842   1.408       .  A
C841        C846   1.413       .  A
C842        C843   1.394       .  A
C842        H851   1.084       .  S
C843        C844   1.410       .  A
C843        S847   1.803       .  S
C844        C845   1.407       .  A
C845        C846   1.401       .  A
C845        H852   1.084       .  S
C846        S848   1.801       .  S
S847        H850   1.407       .  S
S848        H849   1.406       .  S
C853        C854   1.406       .  A
C853        C858   1.410       .  A
C854        C855   1.401       .  A
C855        C856   1.413       .  A
C855        S859   1.803       .  S
C856        C857   1.408       .  A
C857        C858   1.396       .  A
C857        H864   1.085       .  S
C858        S860   1.803       .  S
S859        H862   1.406       .  S
S860        H861   1.407       .  S
C865        C866   1.405       .  A
C865        C870   1.412       .  A
C866        C867   1.396       .  A
C866        H875   1.085       .  S
C867        C868   1.410       .  A
C867        S871   1.803       .  S
C868        C869   1.402       .  A
C869        C870   1.396       .  A
C869        H876   1.085       .  S
C870        S872   1.803       .  S
S871        H874   1.407       .  S
S872        H873   1.406       .  S
C877        C878   1.400       .  A
C877        C882   1.418       .  A
C878        C879   1.396       .  A
C878        H887   1.084       .  S
C879        C880   1.418       .  A
C879        S883   1.807       .  S
C880        C881   1.402       .  A
C881        C882   1.403       .  A
C881        H888   1.083       .  S
S883        H886   1.407       .  S
S884        H885   1.407   1_565  S
C889        C890   1.409       .  A
C889        C894   1.420       .  A
C890        C891   1.397       .  A
C890        H899   1.081       .  S
C891        C892   1.412       .  A
C891        S895   1.804       .  S
C892        C893   1.406       .  A
C893        C894   1.404       .  A
C893        H900   1.084       .  S
C894        S896   1.803   1_556  S
S895        H898   1.407       .  S
S896        H897   1.387       .  S
C901        C902   1.409       .  A
C901        C906   1.423       .  A
C902        C903   1.402       .  A
C902        H911   1.081   1_554  S
C903        C904   1.411       .  A
C903        S907   1.804       .  S
C904        C905   1.396       .  A
C905        C906   1.397       .  A
C905        H912   1.083       .  S
C906        S908   1.806   1_655  S
S907        H910   1.406       .  S
S908        H909   1.397   1_565  S
C913        C914   1.403       .  A
C913        C918   1.419       .  A
C914        C915   1.392       .  A
C914        H923   1.084       .  S
C915        C916   1.415       .  A
C915        S919   1.805       .  S
C916        C917   1.404       .  A
C917        C918   1.404       .  A
C917        H924   1.084       .  S
C918        S920   1.803   1_556  S
S919        H922   1.407       .  S
S920        H921   1.404       .  S
C925        C926   1.405       .  A
C925        C930   1.425       .  A
C926        C927   1.394       .  A
C926        H935   1.085       .  S
C927        C928   1.411       .  A
C927        S931   1.802       .  S
C928        C929   1.401       .  A
C929        C930   1.403       .  A
C929        H936   1.084       .  S
C930        S932   1.804   1_554  S
S931        H934   1.406       .  S
S932        H933   1.393       .  S
C937        C938   1.402       .  A
C937        C942   1.412       .  A
C938        C939   1.397       .  A
C938        H947   1.085       .  S
C939        C940   1.414       .  A
C939        S943   1.802       .  S
C940        C941   1.407       .  A
C941        C942   1.402       .  A
C941        H948   1.084       .  S
C942        S944   1.802       .  S
S943        H946   1.406       .  S
S944        H945   1.407       .  S
C949        C950   1.402       .  A
C949        C954   1.417       .  A
C950        C951   1.397       .  A
C950        H959   1.083       .  S
C951        C952   1.415       .  A
C951        S955   1.806       .  S
C952        C953   1.401       .  A
C953        C954   1.399       .  A
C953        H960   1.083       .  S
C954        S956   1.804       .  S
S955        H958   1.407       .  S
S956        H957   1.408       .  S
C961        C962   1.411       .  A
C961        C966   1.418       .  A
C962        C963   1.409       .  A
C962        H971   1.082       .  S
C963        C964   1.421       .  A
C963        S967   1.803       .  S
C964        C965   1.404       .  A
C965        C966   1.390       .  A
C965        H972   1.083       .  S
C966        S968   1.799       .  S
S967        H970   1.407       .  S
S968        H969   1.403   1_554  S
C973        C974   1.397       .  A
C973        C978   1.415       .  A
C974        C975   1.394       .  A
C974        H983   1.085       .  S
C975        C976   1.418       .  A
C975        S979   1.805       .  S
C976        C977   1.404       .  A
C977        C978   1.402       .  A
C977        H984   1.084       .  S
C978        S980   1.804       .  S
S979        H982   1.407       .  S
S980        H981   1.407       .  S
C985        C986   1.407       .  A
C985        C990   1.420       .  A
C986        C987   1.396       .  A
C986        H995   1.082       .  S
C987        C988   1.419       .  A
C987        S991   1.802       .  S
C988        C989   1.408       .  A
C989        C990   1.402       .  A
C989        H996   1.077   1_565  S
C990        S992   1.801       .  S
S991        H994   1.407   1_454  S
S992        H993   1.407       .  S
C997        C998   1.406       .  A
C997       C1002   1.412       .  A
C998        C999   1.397       .  A
C998       H1007   1.085       .  S
C999       C1000   1.413       .  A
C999       S1003   1.799       .  S
C1000      C1001   1.406       .  A
C1001      C1002   1.400       .  A
S1003      H1006   1.407       .  S
C1009      C1010   1.402       .  A
C1009      C1014   1.418       .  A
C1010      C1011   1.404       .  A
C1010      H1019   1.084       .  S
C1011      C1012   1.417       .  A
C1011      S1015   1.803       .  S
C1012      C1013   1.398       .  A
C1013      C1014   1.394       .  A
C1013      H1020   1.085       .  S
C1014      S1016   1.806       .  S
S1015      H1018   1.407       .  S
S1016      H1017   1.407       .  S
C1021      C1022   1.400       .  A
C1021      C1026   1.418       .  A
C1022      C1023   1.401       .  A
C1022      H1031   1.083       .  S
C1023      C1024   1.416       .  A
C1023      S1027   1.803       .  S
C1024      C1025   1.398       .  A
C1025      C1026   1.394       .  A
C1025      H1032   1.084       .  S
C1026      S1028   1.806       .  S
S1028      H1029   1.407       .  S
C1033      C1034   1.408       .  A
C1033      C1038   1.417       .  A
C1034      C1035   1.393       .  A
C1034      H1043   1.083       .  S
C1035      C1036   1.419       .  A
C1035      S1039   1.807       .  S
C1036      C1037   1.413       .  A
C1037      C1038   1.403       .  A
C1037      H1044   1.081       .  S
C1038      S1040   1.800       .  S
S1039      H1042   1.407       .  S
S1040      H1041   1.400       .  S
C1045      C1046   1.405       .  A
C1045      C1050   1.413       .  A
C1046      C1047   1.397       .  A
C1046      H1055   1.083       .  S
C1047      C1048   1.413       .  A
C1047      S1051   1.804       .  S
C1048      C1049   1.404       .  A
C1049      C1050   1.400       .  A
C1049      H1056   1.083       .  S
C1050      S1052   1.804       .  S
S1051      H1054   1.407       .  S
S1052      H1053   1.407       .  S
C1057      C1058   1.403       .  A
C1057      C1062   1.412       .  A
C1058      C1059   1.404       .  A
C1059      C1060   1.422       .  A
C1059      S1063   1.798       .  S
C1060      C1061   1.406       .  A
C1061      C1062   1.394       .  A
C1061      H1068   1.084       .  S
C1062      S1064   1.797   1_556  S
S1063      H1066   1.406       .  S
S1064      H1065   1.398       .  S
C1069      C1070   1.407       .  A
C1069      C1074   1.415       .  A
C1070      C1071   1.398       .  A
C1070      H1079   1.083       .  S
C1071      C1072   1.411       .  A
C1071      S1075   1.803       .  S
C1072      C1073   1.403       .  A
C1073      C1074   1.398       .  A
C1073      H1080   1.084       .  S
C1074      S1076   1.801       .  S
S1075      H1078   1.405       .  S
S1076      H1077   1.406       .  S
C1081      C1082   1.409       .  A
C1081      C1086   1.420       .  A
C1082      C1083   1.406       .  A
C1082      H1091   1.082       .  S
C1083      C1084   1.421       .  A
C1083      S1087   1.803       .  S
C1084      C1085   1.403       .  A
C1085      C1086   1.393       .  A
C1085      H1092   1.080       .  S
C1086      S1088   1.811       .  S
S1087      H1090   1.407       .  S
S1088      H1089   1.407       .  S
C1093      C1094   1.400       .  A
C1093      C1098   1.411       .  A
C1094      C1095   1.399       .  A
C1094      H1103   1.083       .  S
C1095      C1096   1.419       .  A
C1095      S1099   1.806       .  S
C1096      C1097   1.410       .  A
C1097      C1098   1.402       .  A
C1097      H1104   1.082   1_554  S
C1098      S1100   1.803   1_554  S
S1099      H1102   1.401       .  S
S1100      H1101   1.406   1_556  S
C1105      C1106   1.415       .  A
C1105      C1110   1.419       .  A
C1106      C1107   1.410       .  A
C1106      H1115   1.082       .  S
C1107      C1108   1.418       .  A
C1107      S1111   1.804       .  S
C1108      C1109   1.407       .  A
C1109      C1110   1.392       .  A
C1109      H1116   1.082       .  S
C1110      S1112   1.808       .  S
S1111      H1114   1.405       .  S
S1112      H1113   1.407       .  S
C1117      C1118   1.405       .  A
C1117      C1122   1.415       .  A
C1118      C1119   1.400       .  A
C1118      H1127   1.083       .  S
C1119      C1120   1.411       .  A
C1119      S1123   1.807       .  S
C1120      C1121   1.403       .  A
C1121      C1122   1.398       .  A
C1121      H1128   1.084       .  S
C1122      S1124   1.801   1_556  S
S1123      H1126   1.407       .  S
S1124      H1125   1.402       .  S
C1129      C1130   1.400       .  A
C1129      C1134   1.411       .  A
C1130      C1131   1.393       .  A
C1130      H1139   1.084       .  S
C1131      C1132   1.419       .  A
C1132      C1133   1.409       .  A
C1133      C1134   1.412       .  A
C1133      H1140   1.080   1_556  S
C1134      S1136   1.805       .  S
S1135      H1138   1.402       .  S
S1136      H1137   1.407   1_556  S
C1141      C1142   1.399       .  A
C1141      C1146   1.414       .  A
C1142      C1143   1.400       .  A
C1143      C1144   1.425       .  A
C1144      C1145   1.408       .  A
C1145      C1146   1.397       .  A
C1145      H1152   1.083       .  S
C1146      S1148   1.805   1_556  S
S1148      H1149   1.404       .  S
C1153      C1154   1.401       .  A
C1153      C1158   1.413       .  A
C1154      C1155   1.404       .  A
C1154      H1163   1.083       .  S
C1155      C1156   1.420       .  A
C1155      S1159   1.800   1_554  S
C1156      C1157   1.406       .  A
C1157      C1158   1.397       .  A
C1157      H1164   1.085       .  S
C1158      S1160   1.804       .  S
S1159      H1162   1.406       .  S
S1160      H1161   1.407       .  S
C1165      C1166   1.408       .  A
C1165      C1170   1.417       .  A
C1166      C1167   1.406       .  A
C1167      C1168   1.419       .  A
C1168      C1169   1.408       .  A
C1169      C1170   1.399       .  A
C1169      H1176   1.083       .  S
C1170      S1172   1.798       .  S
S1172      H1173   1.406   1_554  S
