geometry optimzed in LAMMPS
_audit_creation_date              2020-11-30 
_audit_creation_method            'lammps2cif' 
_symmetry_space_group_name_H-M    'P1' 
_symmetry_Int_Tables_number       1 
_symmetry_cell_setting            triclinic 
loop_ 
_symmetry_equiv_pos_as_xyz 
  x,y,z 
_cell_length_a                    40.85308663 
_cell_length_b                    41.25718614306114 
_cell_length_c                    28.11561627650404 
_cell_angle_alpha                 89.21935495368854 
_cell_angle_beta                  90.5614261914141 
_cell_angle_gamma                 119.81544746411113 
loop_ 
_atom_site_label 
_atom_site_type_symbol 
_atom_site_fract_x 
_atom_site_fract_y 
_atom_site_fract_z 
_atom_site_charge 
C1          C  0.50719869  0.16025095  0.30478831     0.87500
C2          C  0.04243721  0.16314484  0.29663150    -0.52800
C3          C  0.04096675  0.13835561  0.26335679     0.10400
C4          C  0.50344498  0.12119680  0.23079915     0.21300
C5          C  0.50185660  0.17658782  0.25855376    -0.53500
C6          C  0.00191245  0.15772050  0.21479384     0.10500
C7          C  0.47633861  0.12007509  0.30764923    -0.53000
C8          C  0.47016411  0.09942784  0.26736340     0.11100
H9          H  0.06625580  0.17970527  0.31976266     0.15600
H10         H  0.50212786  0.10468941  0.19927261     0.01300
H11         H  0.50061738  0.20230349  0.25701617     0.15900
H12         H  0.45951992  0.10965564  0.33970731     0.15700
C13         C  0.14076866  0.15986752  0.28677526     0.87500
C14         C  0.14469691  0.12906366  0.26344433    -0.52800
C15         C  0.11525722  0.10693374  0.23317717     0.10400
C16         C  0.09354385  0.12810694  0.21677058     0.21300
C17         C  0.14791917  0.18656861  0.24545174    -0.53500
C18         C  0.12469157  0.16979921  0.20739289     0.10500
C19         C  0.09896567  0.14331255  0.29944796    -0.53000
C20         C  0.07394229  0.13088353  0.26192523     0.11100
H21         H  0.16315788  0.11984488  0.27925263     0.15600
H22         H  0.07412252  0.11473730  0.18629594     0.01300
H23         H  0.17164094  0.21492734  0.24436651     0.15900
H24         H  0.09078096  0.14556680  0.33535316     0.15700
C25         C  0.10962754  0.02861795  0.30320043     0.87500
C26         C  0.07238469  0.99584680  0.29021223    -0.52800
C27         C  0.06240325  0.99402112  0.24260590     0.10400
C28         C  0.09045622  0.03152435  0.21519994     0.21300
C29         C  0.13851044  0.03160858  0.26565851    -0.53500
C30         C  0.12848371  0.03273053  0.21968149     0.10500
C31         C  0.10121941  0.05946583  0.29422023    -0.53000
C32         C  0.09587722  0.06542642  0.24710285     0.11100
H33         H  0.07143255  0.48015234  0.32819954     0.15600
H34         H  0.08169006  0.03275239  0.17803017     0.01300
H35         H  0.16461890  0.03206920  0.27501608     0.15900
H36         H  0.10557004  0.07901771  0.32243341     0.15700
C37         C  0.00546680  0.40062998  0.28578590     0.87500
C38         C  0.47797299  0.41023647  0.28916047    -0.52800
C39         C  0.46900124  0.42776496  0.25337049     0.10400
C40         C  0.00103833  0.43956604  0.21525825     0.21300
C41         C  0.98824102  0.37719260  0.24168801    -0.53500
C42         C  0.48786264  0.39718615  0.19412672     0.10500
C43         C  0.04336797  0.43001673  0.26817104    -0.53000
C44         C  0.04223771  0.45577221  0.23794179     0.11100
H45         H  0.46571304  0.40464089  0.32443510     0.15600
H46         H  0.99996248  0.45625862  0.18462036     0.01300
H47         H  0.98220974  0.34846136  0.23927217     0.15900
H48         H  0.06898474  0.43416130  0.28584780     0.15700
C49         C  0.36811290  0.39781188  0.29147899     0.87500
C50         C  0.37844644  0.43783779  0.29953420    -0.52800
C51         C  0.39718069  0.46260581  0.26315023     0.10400
C52         C  0.41003864  0.44358503  0.22449074     0.21300
C53         C  0.34958234  0.38706630  0.24292055    -0.53500
C54         C  0.37114911  0.40992108  0.20687819     0.10500
C55         C  0.40469246  0.39878600  0.28628606    -0.53000
C56         C  0.42948623  0.42396361  0.25399122     0.11100
H57         H  0.37001245  0.44488132  0.33239421     0.15600
H58         H  0.42774318  0.46280257  0.19569004     0.01300
H59         H  0.32205119  0.36257706  0.23723870     0.15900
H60         H  0.40917749  0.37905074  0.30709419     0.15700
C61         C  0.36248404  0.03414375  0.28214761     0.87500
C62         C  0.40168247  0.06663854  0.28812311    -0.52800
C63         C  0.42955884  0.06750430  0.25987314     0.10400
C64         C  0.41262224  0.03369610  0.22442258     0.21300
C65         C  0.35318417  0.03581943  0.23047396    -0.53500
C66         C  0.37874711  0.03573483  0.19950810     0.10500
C67         C  0.36627537  0.99960067  0.28635100    -0.53000
C68         C  0.39271712  0.99796164  0.25745034     0.11100
H69         H  0.40554800  0.08846326  0.31234048     0.15600
H70         H  0.43355400  0.03367396  0.19957873     0.01300
H71         H  0.32844931  0.03731358  0.21909006     0.15900
H72         H  0.35000873  0.47996909  0.31522563     0.15700
O73         O  0.19591051  0.02777008  0.41607435    -0.79200
O74         O  0.31859909  0.10350290  0.04325580    -0.79200
O75         O  0.23167864  0.08016748  0.98261661    -0.79200
O76         O  0.32076005  0.03622056  0.43790566    -0.79100
O77         O  0.25097864  0.09952342  0.05473894    -0.79300
O78         O  0.27032179  0.03239476  0.40197527    -0.79200
O79         O  0.30589468  0.08649997  0.96917537    -0.79200
O80         O  0.15448569  0.02756906  0.46764684    -0.79200
C81         C  0.16456608  0.02750633  0.42513201     1.10500
C82         C  0.32522933  0.11088469  0.99934648     1.10400
C83         C  0.24188392  0.10520086  0.01345546     1.10500
C84         C  0.30306730  0.03457794  0.39974935     1.10400
O85         O  0.24057148  0.46115069  0.45544415    -0.79200
O86         O  0.22506909  0.03423101  0.11487395    -0.79200
O87         O  0.17328763  0.48249602  0.03778876    -0.79200
O88         O  0.33489939  0.05279037  0.03997896    -0.79200
O89         O  0.29618426  0.03824352  0.10095582    -0.79200
O90         O  0.17767181  0.46059497  0.46940694    -0.79200
O91         O  0.28001942  0.48454299  0.51274744    -0.79100
O92         O  0.18713064  0.04227523  0.06632231    -0.79200
Co93       Co  0.22724081  0.50182169  0.44851864     1.51500
Co94       Co  0.27083950  0.06547056  0.07486738     1.51700
Co95       Co  0.20312128  0.02775048  0.00652035     1.51600
Co96       Co  0.29453614  0.03579458  0.98864392     1.51500
O97         O  0.24864972  0.02626666  0.02040583    -1.41100
C98         C  0.25966076  0.45723725  0.48795320     1.10400
C99         C  0.19541289  0.03646188  0.10801945     1.10500
C100        C  0.16020703  0.45792177  0.50679568     1.10500
C101        C  0.32734692  0.04386945  0.08377393     1.10400
O102        O  0.42293570  0.21144251  0.46110115    -0.79200
O103        O  0.99693766  0.31341061  0.10409236    -0.79200
O104        O  0.01990418  0.21879620  0.05731361    -0.79200
O105        O  0.44821893  0.30510981  0.00627420    -0.79100
O106        O  0.00145672  0.24605267  0.10905546    -0.79300
O107        O  0.42492035  0.27493893  0.44534732    -0.79200
O108        O  0.51038402  0.35630403  0.03927036    -0.79200
O109        O  0.45442501  0.20001656  0.02334506    -0.79200
C110        C  0.41842443  0.19370354  0.49935732     1.10500
C111        C  0.00023611  0.34450846  0.09079369     1.10400
C112        C  0.00797953  0.21976393  0.09853705     1.10500
C113        C  0.41878981  0.29089851  0.47859992     1.10400
O114        O  0.49970435  0.30981938  0.40425484    -0.79200
O115        O  0.07240880  0.28539714  0.06010587    -0.79200
O116        O  0.98977975  0.20287977  0.45113747    -0.79200
O117        O  0.05356668  0.34160419  0.97761009    -0.79200
O118        O  0.06763604  0.34829217  0.05350727    -0.79200
O119        O  0.49621826  0.23904442  0.41602114    -0.79200
O120        O  0.49709839  0.35673313  0.43844733    -0.79100
O121        O  0.06198092  0.27513704  0.98410562    -0.79200
Co122      Co  0.46527707  0.26139877  0.44195417     1.51500
Co123      Co  0.03138577  0.29671226  0.07779639     1.51700
Co124      Co  0.00788049  0.23941241  0.99855811     1.51600
Co125      Co  0.49994357  0.31982445  0.98637162     1.51500
O126        O  0.99634429  0.27751623  0.01804059    -1.41100
C127        C  0.50065048  0.34154891  0.40113820     1.10400
C128        C  0.08397858  0.28306119  0.01933889     1.10500
C129        C  0.49802929  0.20918663  0.42362933     1.10500
C130        C  0.07691344  0.35784156  0.01047935     1.10400
O131        O  0.18058492  0.27350422  0.43544906    -0.79200
O132        O  0.28473591  0.32795998  0.08954045    -0.79200
O133        O  0.16805980  0.20290848  0.04735647    -0.79200
O134        O  0.25962526  0.34794600  0.01360064    -0.79100
O135        O  0.20818925  0.25373770  0.08912307    -0.79300
O136        O  0.24092442  0.33930043  0.43639423    -0.79200
O137        O  0.33140632  0.36743145  0.04219226    -0.79200
O138        O  0.18287054  0.27001826  0.01149555    -0.79200
C139        C  0.15973021  0.26347169  0.47110567     1.10500
C140        C  0.31726569  0.35845357  0.08348733     1.10400
C141        C  0.17728338  0.22120399  0.08595563     1.10500
C142        C  0.25199373  0.36255145  0.46925740     1.10400
O143        O  0.28952328  0.30893625  0.41468006    -0.79200
O144        O  0.25266688  0.22016753  0.06563541    -0.79200
O145        O  0.17269390  0.19482559  0.45294661    -0.79200
O146        O  0.33030870  0.31032111  0.99135392    -0.79200
O147        O  0.31700930  0.28293127  0.05966471    -0.79200
O148        O  0.22361232  0.23673831  0.41496898    -0.79200
O149        O  0.32803935  0.36190739  0.45097298    -0.79100
O150        O  0.22566366  0.20245063  0.99758413    -0.79200
Co151      Co  0.23526962  0.28869630  0.43572060     1.51500
Co152      Co  0.26358083  0.27273828  0.06553260     1.51700
Co153      Co  0.20609484  0.23737121  0.00659243     1.51600
Co154      Co  0.29410621  0.32726260  0.00569687     1.51200
O155        O  0.25361879  0.27861964  0.98768854    -1.41100
C156        C  0.31657465  0.34293745  0.41312065     1.10400
C157        C  0.24196556  0.19734689  0.03227469     1.10500
C158        C  0.19138351  0.20655499  0.41434202     1.10500
C159        C  0.33803212  0.29426797  0.02374930     1.10400
C160        C  0.12135410  0.28536205  0.01574069    -0.15500
C161        C  0.13511408  0.28004214  0.97514903    -0.30600
H162        H  0.13683138  0.28881475  0.04869677     0.13600
H163        H  0.11086656  0.26495245  0.43888589     0.14100
C164        C  0.37223642  0.29065566  0.02144008    -0.15500
C165        C  0.38173200  0.28857960  0.48198896    -0.30600
H166        H  0.38634789  0.29118571  0.05462327     0.13600
H167        H  0.36550632  0.28362642  0.44935949     0.14100
C168        C  0.26059561  0.42250045  0.49596463    -0.15500
C169        C  0.24499396  0.39413105  0.46557921    -0.30600
H170        H  0.28141323  0.42033526  0.02870803     0.13600
H171        H  0.22906915  0.39539429  0.43510419     0.14100
C172        C  0.23946141  0.13925123  0.00311112    -0.15500
C173        C  0.24763705  0.16483821  0.03698474    -0.30600
H174        H  0.23192774  0.14996087  0.46508989     0.13600
H175        H  0.25844247  0.16152744  0.07110008     0.14100
C176        C  0.12854481  0.42167780  0.52253034    -0.15500
C177        C  0.11324485  0.39022450  0.99846371    -0.30600
H178        H  0.11458561  0.42069619  0.55568144     0.13600
H179        H  0.12284160  0.39318426  0.96190874     0.14100
C180        C  0.38155971  0.16263346  0.51280730    -0.15500
C181        C  0.35915676  0.14514445  0.98423352    -0.30600
H182        H  0.38831289  0.14777442  0.04764676     0.13600
H183        H  0.36075861  0.15551227  0.94810881     0.14100
C184        C  0.35435917  0.04086598  0.11505700    -0.12300
C185        C  0.37153891  0.03829738  0.14919002    -0.13900
C186        C  0.33642314  0.03505093  0.31831360    -0.12300
C187        C  0.32013460  0.03607973  0.35388982    -0.13900
C188        C  0.35635326  0.39961023  0.15834036    -0.12300
C189        C  0.33801016  0.38269081  0.12340121    -0.13900
C190        C  0.34665481  0.37374664  0.33120574    -0.12300
C191        C  0.33358546  0.35863192  0.36853371    -0.13900
C192        C  0.98880025  0.38353336  0.15636471    -0.12300
C193        C  0.99280021  0.36660908  0.12403830    -0.13900
C194        C  0.50683847  0.35984245  0.35512250    -0.12300
C195        C  0.50797510  0.37435204  0.31686036    -0.13900
C196        C  0.17153582  0.03403547  0.14757556    -0.12300
C197        C  0.15147267  0.03341465  0.17975046    -0.13900
C198        C  0.12396802  0.02815155  0.35143365    -0.12300
C199        C  0.14174422  0.02879455  0.38646037    -0.13900
C200        C  0.13542946  0.18812696  0.16139954    -0.12300
C201        C  0.15261651  0.20504671  0.12626233    -0.13900
C202        C  0.17719725  0.18754730  0.36940660    -0.12300
C203        C  0.16410884  0.17566627  0.33025258    -0.13900
C204        C  0.00325279  0.19143354  0.13372283    -0.12300
C205        C  0.00145808  0.17097872  0.16654810    -0.13900
C206        C  0.50834324  0.18019493  0.34751127    -0.12300
C207        C  0.50561603  0.19305625  0.38412739    -0.13900
C208        C  0.50705801  0.15426101  0.80497910     0.87500
C209        C  0.04171207  0.15764477  0.79934762    -0.52800
C210        C  0.03974643  0.13306386  0.76555319     0.10400
C211        C  0.50073154  0.12254103  0.72304413     0.21300
C212        C  0.50700299  0.17761980  0.76165693    -0.53500
C213        C  0.00633018  0.15809061  0.71545944     0.10500
C214        C  0.47258436  0.11716546  0.80162879    -0.53000
C215        C  0.46590306  0.09984569  0.75834034     0.11100
H216        H  0.06491767  0.17263258  0.82389257     0.15600
H217        H  0.49784383  0.10869845  0.68845406     0.01300
H218        H  0.50943539  0.20494367  0.76502882     0.15900
H219        H  0.45483558  0.10549639  0.83278644     0.15700
C220        C  0.13841332  0.15433714  0.78879921     0.87500
C221        C  0.14297411  0.12322909  0.76795724    -0.52800
C222        C  0.11295709  0.09914184  0.73962779     0.10400
C223        C  0.09093914  0.11944457  0.72030630     0.21300
C224        C  0.14477224  0.17933143  0.74589759    -0.53500
C225        C  0.12193520  0.16097209  0.70826214     0.10500
C226        C  0.09681445  0.13707577  0.80203042    -0.53000
C227        C  0.07155950  0.12383421  0.76484716     0.11100
H228        H  0.16267781  0.11581010  0.78420569     0.15600
H229        H  0.07130683  0.10457378  0.69053478     0.01300
H230        H  0.16833812  0.20773516  0.74344351     0.15900
H231        H  0.08884008  0.13911950  0.83812425     0.15700
C232        C  0.11726493  0.02551481  0.80801846     0.87500
C233        C  0.08103702  0.99024532  0.80210184    -0.52800
C234        C  0.06205153  0.98710816  0.76017525     0.10400
C235        C  0.08507298  0.02296385  0.72666333     0.21300
C236        C  0.14133675  0.02852410  0.76454819    -0.53500
C237        C  0.12441515  0.02638777  0.72168983     0.10500
C238        C  0.10495384  0.05423939  0.80265666    -0.53000
C239        C  0.09414407  0.05825131  0.75731627     0.11100
H240        H  0.06218947  0.47795391  0.82878599     0.15600
H241        H  0.07098860  0.02168531  0.69222846     0.01300
H242        H  0.16936728  0.03181546  0.76759101     0.15900
H243        H  0.11139550  0.07451519  0.83067315     0.15700
C244        C  0.00213436  0.39885669  0.78444969     0.87500
C245        C  0.47968414  0.40913485  0.79081375    -0.52800
C246        C  0.47180409  0.42791540  0.75535631     0.10400
C247        C  0.99795837  0.43906599  0.71499449     0.21300
C248        C  0.98463100  0.37622357  0.73983509    -0.53500
C249        C  0.49597517  0.40226815  0.69648250     0.10500
C250        C  0.04016134  0.42863168  0.76699034    -0.53000
C251        C  0.03898252  0.45478966  0.73728927     0.11100
H252        H  0.46590204  0.40147505  0.82512668     0.15600
H253        H  0.99679838  0.45616850  0.68491128     0.01300
H254        H  0.97922162  0.34775216  0.73647799     0.15900
H255        H  0.06572175  0.43310840  0.78515342     0.15700
C256        C  0.37142351  0.39990994  0.79221335     0.87500
C257        C  0.38342358  0.44020896  0.80033581    -0.52800
C258        C  0.40137795  0.46411568  0.76320512     0.10400
C259        C  0.41297101  0.44408410  0.72429280     0.21300
C260        C  0.35189519  0.38911243  0.74438736    -0.53500
C261        C  0.37320111  0.41078836  0.70755598     0.10500
C262        C  0.40694459  0.39910398  0.78620866    -0.53000
C263        C  0.43211022  0.42402813  0.75406667     0.11100
H264        H  0.37623600  0.44811355  0.83350860     0.15600
H265        H  0.43072466  0.46285604  0.69519405     0.01300
H266        H  0.32386150  0.36508167  0.73973283     0.15900
H267        H  0.41046953  0.37869550  0.80676731     0.15700
C268        C  0.35889490  0.03675784  0.77638478     0.87500
C269        C  0.39813582  0.06925646  0.77932715    -0.52800
C270        C  0.42494767  0.06900330  0.75024680     0.10400
C271        C  0.40656400  0.03436652  0.71612387     0.21300
C272        C  0.34762407  0.03743020  0.72534288    -0.53500
C273        C  0.37208558  0.03634318  0.69314706     0.10500
C274        C  0.36210696  0.00198807  0.78019877    -0.53000
C275        C  0.38712759  0.99921606  0.75008966     0.11100
H276        H  0.40305479  0.09223103  0.80220591     0.15600
H277        H  0.42647826  0.03350351  0.69029224     0.01300
H278        H  0.32267706  0.03898101  0.71526444     0.15900
H279        H  0.35387130  0.48115403  0.81618289     0.15700
O280        O  0.20371569  0.02671929  0.92272476    -0.79200
O281        O  0.31153029  0.10373064  0.53939426    -0.79200
O282        O  0.22702287  0.08398055  0.47774147    -0.79200
O283        O  0.32779850  0.03733956  0.93941834    -0.79100
O284        O  0.24527151  0.10112370  0.55088667    -0.79300
O285        O  0.27509807  0.03112811  0.90749588    -0.79200
O286        O  0.30047703  0.08738715  0.46468309    -0.79200
O287        O  0.15985859  0.02238756  0.97279706    -0.79200
C288        C  0.17177781  0.02490086  0.93057953     1.10500
C289        C  0.31892458  0.11154871  0.49564229     1.10400
C290        C  0.23919875  0.10890761  0.50907005     1.10500
C291        C  0.30832971  0.03522739  0.90267208     1.10400
O292        O  0.24148679  0.45793200  0.95991568    -0.79200
O293        O  0.21719926  0.03424310  0.60919977    -0.79200
O294        O  0.16963932  0.48656455  0.53048673    -0.79200
O295        O  0.32712673  0.05298834  0.53589049    -0.79200
O296        O  0.28773234  0.03741624  0.59601787    -0.79200
O297        O  0.17830790  0.45718212  0.97402239    -0.79200
O298        O  0.28329770  0.48413519  0.01429127    -0.79100
O299        O  0.18082724  0.04515131  0.56138646    -0.79200
Co300      Co  0.22745705  0.49780629  0.95008177     1.51500
Co301      Co  0.26354119  0.06580453  0.57038633     1.51700
Co302      Co  0.19693387  0.03141519  0.50058711     1.51600
Co303      Co  0.28712980  0.03626956  0.48488023     1.51500
O304        O  0.24139605  0.02807300  0.51474443    -1.41100
C305        C  0.26177430  0.45543173  0.99195246     1.10400
C306        C  0.18785299  0.03703561  0.60264268     1.10500
C307        C  0.16274746  0.45412561  0.01332434     1.10500
C308        C  0.31910244  0.04341802  0.57923857     1.10400
O309        O  0.42964233  0.20879729  0.95999219    -0.79200
O310        O  0.99946501  0.31518683  0.60336583    -0.79200
O311        O  0.01479725  0.21279437  0.56082271    -0.79200
O312        O  0.44520290  0.30949940  0.50669684    -0.79100
O313        O  0.00053534  0.24534077  0.60953771    -0.79300
O314        O  0.42931071  0.27142327  0.94419032    -0.79200
O315        O  0.50978019  0.35908220  0.53915871    -0.79200
O316        O  0.44618409  0.20223227  0.52564429    -0.79200
C317        C  0.42615279  0.19110825  0.99791340     1.10500
C318        C  0.00518577  0.34736216  0.59101850     1.10400
C319        C  0.00579420  0.21760438  0.60163890     1.10500
C320        C  0.42245215  0.28714468  0.97735057     1.10400
O321        O  0.50479855  0.30818572  0.90402776    -0.79200
O322        O  0.06994699  0.28166954  0.55746508    -0.79200
O323        O  0.01060322  0.20370767  0.95944772    -0.79200
O324        O  0.05629974  0.34047415  0.47479791    -0.79200
O325        O  0.07019752  0.34702100  0.55065314    -0.79200
O326        O  0.50470882  0.23795556  0.91749411    -0.79200
O327        O  0.49950941  0.35342619  0.93878393    -0.79100
O328        O  0.05413791  0.26224700  0.48480620    -0.79200
Co329      Co  0.47117762  0.25906039  0.94136174     1.51500
Co330      Co  0.03127021  0.29578385  0.57566222     1.51700
Co331      Co  0.00168718  0.23445521  0.50707089     1.51600
Co332      Co  0.49661936  0.32254979  0.48596923     1.51500
O333        O  0.99528615  0.27838092  0.51510253    -1.41100
C334        C  0.50421670  0.33924300  0.90131815     1.10400
C335        C  0.07825343  0.27399610  0.51758087     1.10500
C336        C  0.50726423  0.20833445  0.92559386     1.10500
C337        C  0.07962610  0.35700471  0.50760011     1.10400
O338        O  0.18319087  0.27507021  0.93445812    -0.79200
O339        O  0.27837017  0.32517378  0.60396053    -0.79200
O340        O  0.18312342  0.20552512  0.55475413    -0.79200
O341        O  0.27025865  0.35910964  0.50300074    -0.79100
O342        O  0.20892209  0.25306105  0.60456352    -0.79300
O343        O  0.24671819  0.34177776  0.93696342    -0.79200
O344        O  0.32322847  0.35315911  0.55070232    -0.79200
O345        O  0.16838353  0.24985098  0.50546160    -0.79200
C346        C  0.16911281  0.27566670  0.97404048     1.10500
C347        C  0.31094103  0.35202928  0.59235991     1.10400
C348        C  0.18293002  0.21999558  0.59433761     1.10500
C349        C  0.24907515  0.35767356  0.97616350     1.10400
O350        O  0.28876903  0.30711683  0.90113383    -0.79200
O351        O  0.25156076  0.22112374  0.56811089    -0.79200
O352        O  0.17720919  0.21156000  0.94623400    -0.79200
O353        O  0.31601824  0.29506981  0.48842530    -0.79200
O354        O  0.31589822  0.28840602  0.56566185    -0.79200
O355        O  0.22616740  0.24115145  0.89989085    -0.79200
O356        O  0.31466371  0.35657711  0.94572039    -0.79100
O357        O  0.24279750  0.21600324  0.49097264    -0.79200
Co358      Co  0.23762164  0.29039915  0.92258880     1.51500
Co359      Co  0.26188887  0.27303160  0.58067213     1.51700
Co360      Co  0.20647526  0.23474028  0.49492648     1.51600
Co361      Co  0.29149140  0.32609981  0.49355834     1.51200
O362        O  0.24472180  0.28398920  0.51473131    -1.41100
C363        C  0.31272619  0.34070149  0.90691509     1.10400
C364        C  0.25093445  0.20548724  0.52941649     1.10500
C365        C  0.19381500  0.21398230  0.90705689     1.10500
C366        C  0.33071330  0.29038991  0.52560272     1.10400
C367        C  0.11413145  0.27423743  0.51287997    -0.15500
C368        C  0.12582080  0.26723087  0.47195952    -0.30600
H369        H  0.13071834  0.27850685  0.54506485     0.13600
H370        H  0.12017469  0.27719850  0.94190403     0.14100
C371        C  0.36700558  0.29075237  0.52341436    -0.15500
C372        C  0.38601621  0.28658925  0.98003607    -0.30600
H373        H  0.38224195  0.29352818  0.55639965     0.13600
H374        H  0.37034488  0.28310190  0.94724373     0.14100
C375        C  0.26204509  0.42014913  0.00178495    -0.15500
C376        C  0.24217417  0.38959568  0.97518599    -0.30600
H377        H  0.27728168  0.42155798  0.52575987     0.13600
H378        H  0.22442636  0.39031794  0.94661810     0.14100
C379        C  0.24298536  0.14587379  0.49854933    -0.15500
C380        C  0.25594771  0.17253273  0.53190363    -0.30600
H381        H  0.22890208  0.14225513  0.96867706     0.13600
H382        H  0.26627719  0.16772240  0.56552992     0.14100
C383        C  0.13117200  0.41834048  0.02905845    -0.15500
C384        C  0.11515844  0.39096154  0.49562339    -0.30600
H385        H  0.12016381  0.41635400  0.06468005     0.13600
H386        H  0.12748185  0.39245496  0.46102364     0.14100
C387        C  0.38962064  0.16001945  0.01272166    -0.15500
C388        C  0.35268692  0.14642833  0.48193969    -0.30600
H389        H  0.37904320  0.15101272  0.54841543     0.13600
H390        H  0.35575963  0.15624191  0.44531655     0.14100
C391        C  0.34582946  0.04005900  0.61002848    -0.12300
C392        C  0.36358801  0.03783185  0.64342423    -0.13900
C393        C  0.33565713  0.03832664  0.81579831    -0.12300
C394        C  0.32320302  0.03855854  0.85491556    -0.13900
C395        C  0.35690709  0.39887546  0.65969575    -0.12300
C396        C  0.33599975  0.37963613  0.62749102    -0.13900
C397        C  0.34980447  0.37689829  0.83182333    -0.12300
C398        C  0.33447875  0.36094716  0.86747730    -0.13900
C399        C  0.99004138  0.38503941  0.65527375    -0.12300
C400        C  0.99669157  0.36924955  0.62369865    -0.13900
C401        C  0.50991224  0.35818929  0.85578109    -0.12300
C402        C  0.51096267  0.37407995  0.81865318    -0.13900
C403        C  0.16292750  0.03206457  0.64235731    -0.12300
C404        C  0.14364958  0.02896669  0.67688383    -0.13900
C405        C  0.13583335  0.02770297  0.85388681    -0.12300
C406        C  0.15126759  0.02780635  0.89068804    -0.13900
C407        C  0.13420609  0.17811439  0.66149844    -0.12300
C408        C  0.15416071  0.19734120  0.62902955    -0.13900
C409        C  0.17564422  0.18887248  0.86795934    -0.12300
C410        C  0.16178303  0.17282054  0.83107041    -0.13900
C411        C  0.00194555  0.19090143  0.63784502    -0.12300
C412        C  0.00266545  0.17039277  0.66851041    -0.13900
C413        C  0.51082838  0.17298155  0.85042912    -0.12300
C414        C  0.51146417  0.18915785  0.88608748    -0.13900
C415        C  0.50673910  0.66002793  0.30517399     0.87500
C416        C  0.04126189  0.66259197  0.28975457    -0.52800
C417        C  0.03970316  0.63783858  0.25652268     0.10400
C418        C  0.50495851  0.62231783  0.23083178     0.21300
C419        C  0.49986176  0.67552545  0.25918397    -0.53500
C420        C  0.99612172  0.65427386  0.21181745     0.10500
C421        C  0.47789380  0.61912473  0.30840788    -0.53000
C422        C  0.47204273  0.59900725  0.26762311     0.11100
H423        H  0.06565542  0.68060458  0.31125246     0.15600
H424        H  0.50452256  0.60635837  0.19915204     0.01300
H425        H  0.49685367  0.70027463  0.25799920     0.15900
H426        H  0.46126151  0.60791277  0.34053261     0.15700
C427        C  0.14054953  0.66227517  0.27788026     0.87500
C428        C  0.14513419  0.63093607  0.25811690    -0.52800
C429        C  0.11484014  0.60605182  0.23116248     0.10400
C430        C  0.09147976  0.62489424  0.21184345     0.21300
C431        C  0.14557635  0.68590775  0.23402472    -0.53500
C432        C  0.12143586  0.66605652  0.19795407     0.10500
C433        C  0.09906117  0.64542667  0.29229886    -0.53000
C434        C  0.07288472  0.63044232  0.25606494     0.11100
H435        H  0.16505824  0.62389515  0.27459735     0.15600
H436        H  0.07132972  0.60900043  0.18295350     0.01300
H437        H  0.16892661  0.71426560  0.22973979     0.15900
H438        H  0.09190487  0.64911861  0.32814985     0.15700
C439        C  0.11938858  0.53639571  0.30852379     0.87500
C440        C  0.08379138  0.50065957  0.29961594    -0.52800
C441        C  0.06971098  0.49571796  0.25354954     0.10400
C442        C  0.09350366  0.53166110  0.22174522     0.21300
C443        C  0.14709768  0.54007410  0.26885983    -0.53500
C444        C  0.13354973  0.53706286  0.22360309     0.10500
C445        C  0.10616146  0.56386070  0.29782803    -0.53000
C446        C  0.09757187  0.56605307  0.25049012     0.11100
H447        H  0.05753453  0.97330875  0.31585504     0.15600
H448        H  0.08215221  0.52943676  0.18516010     0.01300
H449        H  0.17500988  0.54406030  0.27628720     0.15900
H450        H  0.11044361  0.58480157  0.32400618     0.15700
C451        C  0.01100534  0.89770519  0.27007469     0.87500
C452        C  0.48019105  0.91322932  0.28940291    -0.52800
C453        C  0.47060394  0.92970914  0.25279215     0.10400
C454        C  0.99823090  0.93454782  0.20344334     0.21300
C455        C  0.99227028  0.87389363  0.22722308    -0.53500
C456        C  0.48175163  0.89279055  0.19517754     0.10500
C457        C  0.04679634  0.92961398  0.24926651    -0.53000
C458        C  0.04080649  0.95436593  0.22221172     0.11100
H459        H  0.46957400  0.91016980  0.32538829     0.15600
H460        H  0.99336951  0.95002117  0.17419798     0.01300
H461        H  0.98725675  0.84553957  0.22401999     0.15900
H462        H  0.07392226  0.93720376  0.26557346     0.15700
C463        C  0.37044590  0.89987783  0.29287469     0.87500
C464        C  0.38072612  0.93998687  0.29922136    -0.52800
C465        C  0.39798538  0.96346748  0.26136287     0.10400
C466        C  0.41027050  0.94340669  0.22329149     0.21300
C467        C  0.35063455  0.88732235  0.24536203    -0.53500
C468        C  0.37114606  0.90878201  0.20786537     0.10500
C469        C  0.40688652  0.90080644  0.28717155    -0.53000
C470        C  0.43077751  0.92510277  0.25356541     0.11100
H471        H  0.37316142  0.94822573  0.33190979     0.15600
H472        H  0.42721356  0.96174775  0.19340389     0.01300
H473        H  0.32316160  0.86238480  0.24142139     0.15900
H474        H  0.41221212  0.88205435  0.30899303     0.15700
C475        C  0.36437390  0.53530877  0.28440354     0.87500
C476        C  0.40351167  0.56818594  0.28789405    -0.52800
C477        C  0.43086209  0.56799033  0.25961271     0.10400
C478        C  0.41292553  0.53303092  0.22571881     0.21300
C479        C  0.35350859  0.53510351  0.23297647    -0.53500
C480        C  0.37830950  0.53420879  0.20144273     0.10500
C481        C  0.36860144  0.50111384  0.29025725    -0.53000
C482        C  0.39375996  0.49821629  0.26041812     0.11100
H483        H  0.40798127  0.59080605  0.31110294     0.15600
H484        H  0.43314760  0.53215849  0.20042075     0.01300
H485        H  0.32839075  0.53609570  0.22215731     0.15900
H486        H  0.34686534  0.97738714  0.30967028     0.15700
O487        O  0.20390543  0.53402923  0.42380624    -0.79200
O488        O  0.32102581  0.60233785  0.04379663    -0.79200
O489        O  0.23480918  0.58251733  0.98075346    -0.79200
O490        O  0.32382672  0.53304830  0.44143948    -0.79100
O491        O  0.25549862  0.60279107  0.05233513    -0.79300
O492        O  0.27507238  0.53417206  0.40761497    -0.79200
O493        O  0.30890070  0.58507952  0.96967638    -0.79200
O494        O  0.16592577  0.53988036  0.47551600    -0.79200
C495        C  0.17481110  0.53778125  0.43281697     1.10500
C496        C  0.32780441  0.60971300  0.00002922     1.10400
C497        C  0.24731910  0.60860518  0.01040277     1.10500
C498        C  0.30678874  0.53440571  0.40405684     1.10400
O499        O  0.23930677  0.96142099  0.45463661    -0.79200
O500        O  0.22629365  0.53710321  0.11466824    -0.79200
O501        O  0.17313925  0.97790296  0.03567848    -0.79200
O502        O  0.33342010  0.54847477  0.04108679    -0.79200
O503        O  0.29518452  0.53705788  0.10190468    -0.79200
O504        O  0.17408372  0.95778403  0.46473269    -0.79200
O505        O  0.27889299  0.98871584  0.51086242    -0.79100
O506        O  0.19039627  0.54819890  0.06655830    -0.79200
Co507      Co  0.22287840  0.99967188  0.44363305     1.51500
Co508      Co  0.27237690  0.56636112  0.07459441     1.51700
Co509      Co  0.20437255  0.53108968  0.00693376     1.51600
Co510      Co  0.29345666  0.53314094  0.98956451     1.51500
O511        O  0.24866911  0.52707511  0.02041223    -1.41100
C512        C  0.25964939  0.96008598  0.48766643     1.10400
C513        C  0.19781976  0.54128673  0.10818708     1.10500
C514        C  0.15691874  0.95363870  0.50286467     1.10500
C515        C  0.32571982  0.54072039  0.08509256     1.10400
O516        O  0.43178801  0.70747334  0.46598314    -0.79200
O517        O  0.98576233  0.80548035  0.08099252    -0.79200
O518        O  0.99580554  0.69383525  0.04625052    -0.79200
O519        O  0.43750915  0.78439046  0.01572770    -0.79100
O520        O  0.99579676  0.73863431  0.09017647    -0.79300
O521        O  0.42586942  0.76786392  0.44931338    -0.79200
O522        O  0.48843937  0.85667805  0.03219231    -0.79200
O523        O  0.44800624  0.71681217  0.03375193    -0.79200
C524        C  0.42645819  0.69287459  0.50727894     1.10500
C525        C  0.98829981  0.83751815  0.07426965     1.10400
C526        C  0.99453676  0.70637646  0.08664795     1.10500
C527        C  0.42062561  0.78670518  0.47958110     1.10400
O528        O  0.49898140  0.80826561  0.40314927    -0.79200
O529        O  0.06960333  0.78583551  0.04630919    -0.79200
O530        O  0.98976398  0.69916446  0.45141868    -0.79200
O531        O  0.04242015  0.85056481  0.96383512    -0.79200
O532        O  0.06007889  0.84518459  0.03620469    -0.79200
O533        O  0.50695287  0.74621995  0.41904574    -0.79200
O534        O  0.49948970  0.85573898  0.43992972    -0.79100
O535        O  0.04858225  0.74771900  0.98817741    -0.79200
Co536      Co  0.46939172  0.75937162  0.44277529     1.51500
Co537      Co  0.02401546  0.79168772  0.05525709     1.51700
Co538      Co  0.99534856  0.73061507  0.00591502     1.51600
Co539      Co  0.49132949  0.81916769  0.99799009     1.51500
O540        O  0.99930716  0.77690258  0.98316362    -1.41100
C541        C  0.50108247  0.84053670  0.40163433     1.10400
C542        C  0.07557496  0.76861491  0.01419672     1.10500
C543        C  0.50116273  0.71329970  0.42243219     1.10500
C544        C  0.06732930  0.86138789  0.99577431     1.10400
O545        O  0.18373152  0.78137657  0.43258049    -0.79200
O546        O  0.27863254  0.82199917  0.10129118    -0.79200
O547        O  0.18323394  0.70489794  0.04619814    -0.79200
O548        O  0.27781265  0.85991188  0.00390264    -0.79100
O549        O  0.20809757  0.75233867  0.09634579    -0.79300
O550        O  0.24598520  0.84496631  0.43695747    -0.79200
O551        O  0.32644959  0.84827998  0.05229873    -0.79200
O552        O  0.17112912  0.75006659  0.99928041    -0.79200
C553        C  0.16208117  0.76954872  0.46763156     1.10500
C554        C  0.31214662  0.84795013  0.09217029     1.10400
C555        C  0.18184917  0.71980926  0.08486888     1.10500
C556        C  0.25613723  0.86651561  0.47146585     1.10400
O557        O  0.29244423  0.81292601  0.41437727    -0.79200
O558        O  0.24923468  0.71781582  0.06345052    -0.79200
O559        O  0.17274056  0.70120529  0.44038492    -0.79200
O560        O  0.31839085  0.79120612  0.98691622    -0.79200
O561        O  0.31502584  0.78267600  0.06417637    -0.79200
O562        O  0.22396134  0.74354296  0.40321690    -0.79200
O563        O  0.33187594  0.86450965  0.45345123    -0.79100
O564        O  0.24439794  0.71401072  0.98570621    -0.79200
Co565      Co  0.23800300  0.79404465  0.43221431     1.51500
Co566      Co  0.26130596  0.77009092  0.07664668     1.51700
Co567      Co  0.20930441  0.73474745  0.98811559     1.51600
Co568      Co  0.29633624  0.82459114  0.99308428     1.51200
O569        O  0.24763442  0.78335553  0.01035246    -1.41100
C570        C  0.32014394  0.84662722  0.41471451     1.10400
C571        C  0.25098329  0.70301155  0.02512927     1.10500
C572        C  0.19183187  0.71330634  0.40227148     1.10500
C573        C  0.33015366  0.78329231  0.02470462     1.10400
C574        C  0.11303197  0.77097115  0.00983320    -0.15500
C575        C  0.12713630  0.76692439  0.96841140    -0.30600
H576        H  0.12952548  0.77591574  0.04221465     0.13600
H577        H  0.11438895  0.77357686  0.43624176     0.14100
C578        C  0.36368760  0.77817543  0.02450815    -0.15500
C579        C  0.38371575  0.78520922  0.48065364    -0.30600
H580        H  0.37837346  0.78109479  0.05798556     0.13600
H581        H  0.36796300  0.77951699  0.44751650     0.14100
C582        C  0.26330548  0.92680702  0.49769315    -0.15500
C583        C  0.24801827  0.89748855  0.46883587    -0.30600
H584        H  0.29068398  0.92685954  0.02551246     0.13600
H585        H  0.23085963  0.89740956  0.43896940     0.14100
C586        C  0.24840029  0.64425644  0.99757551    -0.15500
C587        C  0.25804967  0.67120809  0.02992570    -0.30600
H588        H  0.26484145  0.66424044  0.56932767     0.13600
H589        H  0.26759851  0.66756026  0.06477663     0.14100
C590        C  0.12601240  0.91696360  0.51666022    -0.15500
C591        C  0.10431723  0.89439061  0.98602205    -0.30600
H592        H  0.11305099  0.91414591  0.55119576     0.13600
H593        H  0.11071590  0.90377838  0.94922136     0.14100
C594        C  0.38975728  0.66146676  0.52148687    -0.15500
C595        C  0.36058631  0.64525053  0.98525391    -0.30600
H596        H  0.38151418  0.66168132  0.05516318     0.13600
H597        H  0.36567724  0.65095984  0.94739661     0.14100
C598        C  0.35220105  0.53734053  0.11707630    -0.12300
C599        C  0.36976554  0.53533571  0.15120223    -0.13900
C600        C  0.33921259  0.53684346  0.32125367    -0.12300
C601        C  0.32349812  0.53723956  0.35764481    -0.13900
C602        C  0.35530124  0.89554851  0.16029598    -0.12300
C603        C  0.33553614  0.87568627  0.12788580    -0.13900
C604        C  0.35013108  0.87721686  0.33352102    -0.12300
C605        C  0.33762473  0.86287279  0.37108145    -0.13900
C606        C  0.98156744  0.87655048  0.14398374    -0.12300
C607        C  0.98189091  0.85749454  0.11167499    -0.13900
C608        C  0.50597066  0.85921509  0.35580727    -0.12300
C609        C  0.50645626  0.87366138  0.31753282    -0.13900
C610        C  0.17431910  0.53917237  0.14817308    -0.12300
C611        C  0.15523152  0.53818212  0.18184038    -0.13900
C612        C  0.13619099  0.53948524  0.35673569    -0.12300
C613        C  0.15316146  0.54052795  0.39309061    -0.13900
C614        C  0.13169874  0.68093195  0.15044784    -0.12300
C615        C  0.15153627  0.69844950  0.11743916    -0.13900
C616        C  0.17837298  0.69414503  0.35764501    -0.12300
C617        C  0.16498979  0.68100752  0.31925056    -0.13900
C618        C  0.99137315  0.68373638  0.12869678    -0.12300
C619        C  0.99224879  0.66648423  0.16393454    -0.13900
C620        C  0.50700963  0.68020155  0.34723034    -0.12300
C621        C  0.50551062  0.69546848  0.38227623    -0.13900
C622        C  0.50244051  0.65168597  0.81198236     0.87500
C623        C  0.04815289  0.66237612  0.78805901    -0.52800
C624        C  0.04612005  0.63856393  0.75333205     0.10400
C625        C  0.50609913  0.62144724  0.73352996     0.21300
C626        C  0.49707410  0.67034258  0.76762277    -0.53500
C627        C  0.00085307  0.65605211  0.71455365     0.10500
C628        C  0.47523200  0.61054098  0.81022633    -0.53000
C629        C  0.47158538  0.59448274  0.76674812     0.11100
H630        H  0.07295690  0.68037262  0.80898260     0.15600
H631        H  0.50804392  0.60852294  0.70009609     0.01300
H632        H  0.49321577  0.69456309  0.76908421     0.15900
H633        H  0.45641815  0.59651882  0.84000210     0.15700
C634        C  0.14530348  0.66095210  0.77791277     0.87500
C635        C  0.15047110  0.62987814  0.75830632    -0.52800
C636        C  0.12048872  0.60489126  0.73096121     0.10400
C637        C  0.09690404  0.62325334  0.71107658     0.21300
C638        C  0.15030016  0.68446002  0.73356363    -0.53500
C639        C  0.12641134  0.66422177  0.69729856     0.10500
C640        C  0.10350572  0.64316566  0.79151784    -0.53000
C641        C  0.07777131  0.62877798  0.75454356     0.11100
H642        H  0.17034601  0.62295494  0.77518084     0.15600
H643        H  0.07704799  0.60709026  0.68205045     0.01300
H644        H  0.17327633  0.71298618  0.72925635     0.15900
H645        H  0.09578324  0.64615728  0.82737952     0.15700
C646        C  0.11631396  0.52989001  0.81001304     0.87500
C647        C  0.07740588  0.49827643  0.80077854    -0.52800
C648        C  0.06532905  0.49460407  0.75391345     0.10400
C649        C  0.09365860  0.52901383  0.72247315     0.21300
C650        C  0.14229991  0.52836917  0.77161829    -0.53500
C651        C  0.13058942  0.52787282  0.72601002     0.10500
C652        C  0.11097834  0.56236818  0.79815779    -0.53000
C653        C  0.10285648  0.56523976  0.75089678     0.11100
H654        H  0.07187902  0.97085277  0.83141325     0.15600
H655        H  0.08369308  0.52874313  0.68552316     0.01300
H656        H  0.16822369  0.52817761  0.78006775     0.15900
H657        H  0.11819783  0.58415745  0.82423809     0.15700
C658        C  0.98358443  0.88324155  0.76506750     0.87500
C659        C  0.45540806  0.88883343  0.75942381    -0.52800
C660        C  0.46059695  0.91989874  0.73339650     0.10400
C661        C  0.99862041  0.93896950  0.70731126     0.21300
C662        C  0.99627117  0.87804563  0.71758933    -0.53500
C663        C  0.51151730  0.91098450  0.69624673     0.10500
C664        C  0.01452155  0.92092197  0.78200206    -0.53000
C665        C  0.02523735  0.95075288  0.75133714     0.11100
H666        H  0.42853188  0.86852853  0.77500169     0.15600
H667        H  0.00478004  0.96184788  0.68146690     0.01300
H668        H  0.99730974  0.85304594  0.70838445     0.15900
H669        H  0.02776234  0.92138459  0.81529284     0.15700
C670        C  0.37878215  0.90806850  0.79790463     0.87500
C671        C  0.37747452  0.94330124  0.79556393    -0.52800
C672        C  0.39161918  0.96435901  0.75466319     0.10400
C673        C  0.40743580  0.94495820  0.71927092     0.21300
C674        C  0.35892121  0.88631059  0.75277063    -0.53500
C675        C  0.37265417  0.90548638  0.71129587     0.10500
C676        C  0.42042114  0.92289126  0.79396948    -0.53000
C677        C  0.43559484  0.93624697  0.74979618     0.11100
H678        H  0.36822998  0.95138903  0.82688410     0.15600
H679        H  0.41972297  0.96104026  0.68594142     0.01300
H680        H  0.33468023  0.85823764  0.75387998     0.15900
H681        H  0.43510690  0.91668722  0.82203635     0.15700
C682        C  0.36424651  0.53401809  0.78098627     0.87500
C683        C  0.40261067  0.56849133  0.78078469    -0.52800
C684        C  0.43014882  0.56742273  0.75363437     0.10400
C685        C  0.41276739  0.53126788  0.72238651     0.21300
C686        C  0.35172585  0.53041262  0.72972748    -0.53500
C687        C  0.37674688  0.52955866  0.69832556     0.10500
C688        C  0.37092904  0.50140234  0.78937149    -0.53000
C689        C  0.39590583  0.49834678  0.75925959     0.11100
H690        H  0.40749572  0.59179814  0.80307105     0.15600
H691        H  0.43294028  0.53027925  0.69710744     0.01300
H692        H  0.32580278  0.52975969  0.71881488     0.15900
H693        H  0.34251407  0.98000999  0.80361555     0.15700
O694        O  0.20159155  0.52669157  0.92231034    -0.79200
O695        O  0.32058988  0.59934296  0.54897332    -0.79200
O696        O  0.23966696  0.59257351  0.49509642    -0.79200
O697        O  0.32538625  0.53197426  0.94062654    -0.79100
O698        O  0.25703636  0.59991670  0.56986855    -0.79300
O699        O  0.27454223  0.52927994  0.90691228    -0.79200
O700        O  0.30799245  0.58617951  0.47341942    -0.79200
O701        O  0.16133895  0.52730782  0.97474261    -0.79200
C702        C  0.17091678  0.52742074  0.93192827     1.10500
C703        C  0.32724480  0.60895064  0.50531180     1.10400
C704        C  0.25186685  0.61312158  0.53164532     1.10500
C705        C  0.30732656  0.53161970  0.90318297     1.10400
O706        O  0.24517042  0.96005090  0.96007733    -0.79200
O707        O  0.22449868  0.52942178  0.61686576    -0.79200
O708        O  0.16560563  0.98138752  0.52798718    -0.79200
O709        O  0.33247161  0.54668258  0.54011365    -0.79200
O710        O  0.29261696  0.52832980  0.59948528    -0.79200
O711        O  0.17889383  0.95544515  0.97001897    -0.79200
O712        O  0.28831644  0.98844474  0.01257097    -0.79100
O713        O  0.19063560  0.54695604  0.57286592    -0.79200
Co714      Co  0.22879811  0.99777364  0.94961813     1.51500
Co715      Co  0.27175485  0.56108709  0.57987042     1.51700
Co716      Co  0.20581678  0.53778325  0.50864325     1.51600
Co717      Co  0.29181660  0.53396379  0.49017035     1.51500
O718        O  0.24700557  0.52788783  0.52068144    -1.41100
C719        C  0.26746021  0.95944526  0.99066860     1.10400
C720        C  0.19667376  0.53514721  0.61227813     1.10500
C721        C  0.16213642  0.95072642  0.00879583     1.10500
C722        C  0.32421167  0.53517707  0.58286163     1.10400
O723        O  0.43036747  0.70639381  0.95896393    -0.79200
O724        O  0.99738126  0.81862282  0.59033100    -0.79200
O725        O  0.01344968  0.71404874  0.56121713    -0.79200
O726        O  0.44763166  0.80757115  0.50610454    -0.79100
O727        O  0.99723923  0.74754478  0.60535220    -0.79300
O728        O  0.42450944  0.76757708  0.94187991    -0.79200
O729        O  0.51392700  0.85837448  0.53899608    -0.79200
O730        O  0.45325633  0.70372468  0.53632195    -0.79200
C731        C  0.42295187  0.69919844  0.00278251     1.10500
C732        C  0.00524464  0.85082268  0.57442191     1.10400
C733        C  0.00297509  0.71968031  0.60075095     1.10500
C734        C  0.41433550  0.77354096  0.98154479     1.10400
O735        O  0.49456997  0.80160542  0.89044534    -0.79200
O736        O  0.06772659  0.78176868  0.55457995    -0.79200
O737        O  0.98864309  0.69933571  0.94923302    -0.79200
O738        O  0.05314257  0.83755443  0.46408555    -0.79200
O739        O  0.06687873  0.84565858  0.54019629    -0.79200
O740        O  0.50067776  0.73999226  0.90614726    -0.79200
O741        O  0.47749735  0.83400496  0.93468306    -0.79100
O742        O  0.05406184  0.76288817  0.48183701    -0.79200
Co743      Co  0.46559535  0.75561893  0.92836878     1.51500
Co744      Co  0.02841103  0.79655019  0.56787989     1.51700
Co745      Co  0.00156224  0.73389149  0.50396055     1.51600
Co746      Co  0.49955012  0.82096113  0.48611655     1.51500
O747        O  0.99318903  0.77704154  0.50658344    -1.41100
C748        C  0.48650381  0.82721945  0.89419887     1.10400
C749        C  0.07754114  0.77489687  0.51517203     1.10500
C750        C  0.49637236  0.70940837  0.92123560     1.10500
C751        C  0.07621746  0.85458143  0.49708212     1.10400
O752        O  0.18478916  0.77768625  0.93191167    -0.79200
O753        O  0.27769083  0.81682482  0.60381651    -0.79200
O754        O  0.18289286  0.70461143  0.54058264    -0.79200
O755        O  0.27349968  0.86134373  0.50511361    -0.79100
O756        O  0.20883951  0.74851916  0.59460011    -0.79300
O757        O  0.24620184  0.84231107  0.93831277    -0.79200
O758        O  0.32367133  0.84994735  0.55333672    -0.79200
O759        O  0.16971450  0.75351536  0.50002424    -0.79200
C760        C  0.16276995  0.76528640  0.96670639     1.10500
C761        C  0.31009383  0.84496312  0.59501565     1.10400
C762        C  0.18237747  0.71705506  0.58138499     1.10500
C763        C  0.25896365  0.86464852  0.97201220     1.10400
O764        O  0.29568534  0.81420814  0.91139589    -0.79200
O765        O  0.24979937  0.71571807  0.55058123    -0.79200
O766        O  0.17645439  0.69715953  0.94307979    -0.79200
O767        O  0.31892767  0.79620770  0.48502405    -0.79200
O768        O  0.31527126  0.78283292  0.56064977    -0.79200
O769        O  0.22809997  0.74078812  0.90770305    -0.79200
O770        O  0.33600021  0.86150497  0.95650207    -0.79100
O771        O  0.24306123  0.72015313  0.47408641    -0.79200
Co772      Co  0.24003511  0.79220093  0.93238611     1.51500
Co773      Co  0.26123513  0.76720487  0.57271034     1.51700
Co774      Co  0.20708422  0.73840979  0.48449353     1.51600
Co775      Co  0.29415643  0.82744511  0.49314522     1.51200
O776        O  0.24617196  0.78482747  0.51007467    -1.41100
C777        C  0.32540992  0.84681958  0.91602638     1.10400
C778        C  0.24910149  0.70419713  0.50851364     1.10500
C779        C  0.19584058  0.71053623  0.90517839     1.10500
C780        C  0.33202253  0.78839693  0.52148231     1.10400
C781        C  0.11411702  0.77624038  0.51115418    -0.15500
C782        C  0.12804880  0.77322618  0.46945204    -0.30600
H783        H  0.12933179  0.77814819  0.54388908     0.13600
H784        H  0.11241022  0.76497872  0.93526297     0.14100
C785        C  0.36846263  0.78881003  0.52069995    -0.15500
C786        C  0.37727537  0.77193388  0.98446665    -0.30600
H787        H  0.38298940  0.79177138  0.55433493     0.13600
H788        H  0.36175683  0.76789033  0.95140384     0.14100
C789        C  0.27073833  0.92598219  0.99897357    -0.15500
C790        C  0.25210627  0.89620218  0.97128231    -0.30600
H791        H  0.28138892  0.92776043  0.52688762     0.13600
H792        H  0.23304701  0.89609436  0.94392821     0.14100
C793        C  0.25726210  0.65134348  0.53449158    -0.15500
C794        C  0.25055797  0.66949020  0.49936429    -0.30600
H795        H  0.23771341  0.64678252  0.96300649     0.13600
H796        H  0.24330514  0.65736789  0.46411919     0.14100
C797        C  0.12835547  0.91493877  0.02057991    -0.15500
C798        C  0.11147362  0.88848985  0.48592903    -0.30600
H799        H  0.12094929  0.90763378  0.05773176     0.13600
H800        H  0.12275688  0.89199579  0.45020576     0.14100
C801        C  0.38621764  0.66794968  0.01734913    -0.15500
C802        C  0.36052646  0.64442070  0.49145581    -0.30600
H803        H  0.38766116  0.65041191  0.55734974     0.13600
H804        H  0.36291531  0.65412339  0.45485121     0.14100
C805        C  0.35085537  0.53140502  0.61372216    -0.12300
C806        C  0.36819090  0.52960914  0.64807431    -0.13900
C807        C  0.33941036  0.53544774  0.81888194    -0.12300
C808        C  0.32402371  0.53509671  0.85617538    -0.13900
C809        C  0.35322563  0.88888089  0.66619534    -0.12300
C810        C  0.33326834  0.87014717  0.63315805    -0.13900
C811        C  0.36242293  0.88569741  0.84101584    -0.12300
C812        C  0.34688131  0.86662314  0.87524791    -0.13900
C813        C  0.00617340  0.89821045  0.63725158    -0.12300
C814        C  0.00552636  0.87844662  0.60550650    -0.13900
C815        C  0.48564320  0.84678795  0.85150789    -0.12300
C816        C  0.48601524  0.86311159  0.81509652    -0.13900
C817        C  0.17244466  0.53003694  0.65238688    -0.12300
C818        C  0.15255085  0.52813970  0.68536538    -0.13900
C819        C  0.13160303  0.53058697  0.85814799    -0.12300
C820        C  0.14869391  0.53030780  0.89350078    -0.13900
C821        C  0.13542145  0.67833643  0.64941602    -0.12300
C822        C  0.15320242  0.69460462  0.61458945    -0.13900
C823        C  0.18246584  0.69264498  0.85917698    -0.12300
C824        C  0.16922907  0.67988080  0.82024414    -0.13900
C825        C  0.99782254  0.69347234  0.63897404    -0.12300
C826        C  0.99752686  0.67205006  0.66947213    -0.13900
C827        C  0.50010917  0.66848468  0.85543828    -0.12300
C828        C  0.49898429  0.68535682  0.88866839    -0.13900
C829        C  0.00810625  0.16707938  0.29958342     0.87500
C830        C  0.54213683  0.15837388  0.29809915    -0.52800
C831        C  0.54115210  0.13599751  0.26186755     0.10400
C832        C  0.00341748  0.12201291  0.23221447     0.21300
C833        C  0.00347946  0.18007851  0.25077836    -0.53500
C834        C  0.50110797  0.15749482  0.21903364     0.10500
C835        C  0.97607134  0.12765667  0.30587078    -0.53000
C836        C  0.97023812  0.10332685  0.26945668     0.11100
H837        H  0.56592271  0.17435092  0.32151883     0.15600
H838        H  0.00165201  0.10326464  0.20315823     0.01300
H839        H  0.00286871  0.20589039  0.24491946     0.15900
H840        H  0.95973465  0.12087673  0.33813573     0.15700
C841        C  0.64087989  0.15679976  0.28483995     0.87500
C842        C  0.64483027  0.12618298  0.26093886    -0.52800
C843        C  0.61493572  0.10399264  0.23122456     0.10400
C844        C  0.59380708  0.12586793  0.21447135     0.21300
C845        C  0.64831225  0.18393466  0.24403663    -0.53500
C846        C  0.62526474  0.16769935  0.20571768     0.10500
C847        C  0.59906410  0.14012583  0.29720202    -0.53000
C848        C  0.57415050  0.12852589  0.25951418     0.11100
H849        H  0.66319285  0.11681253  0.27665337     0.15600
H850        H  0.57445818  0.11281831  0.18384926     0.01300
H851        H  0.67182163  0.21242160  0.24367727     0.15900
H852        H  0.59073971  0.14101455  0.33350974     0.15700
C853        C  0.61115042  0.02771797  0.30326678     0.87500
C854        C  0.57445287  0.99398951  0.29235838    -0.52800
C855        C  0.56245034  0.99104095  0.24570915     0.10400
C856        C  0.58898055  0.02810632  0.21612342     0.21300
C857        C  0.63935904  0.03098369  0.26471220    -0.53500
C858        C  0.62786581  0.03094186  0.21919088     0.10500
C859        C  0.60108352  0.05756899  0.29414135    -0.53000
C860        C  0.59475126  0.06262209  0.24690519     0.11100
H861        H  0.55699738  0.47663484  0.32674265     0.15600
H862        H  0.57904141  0.02811906  0.17924155     0.01300
H863        H  0.66645249  0.03323917  0.27306299     0.15900
H864        H  0.60584094  0.07759227  0.32185635     0.15700
C865        C  0.50453224  0.39567711  0.27616914     0.87500
C866        C  0.98294487  0.42042630  0.29591658    -0.52800
C867        C  0.97426439  0.43538049  0.25696674     0.10400
C868        C  0.49645917  0.43690912  0.21100074     0.21300
C869        C  0.49007257  0.37533052  0.22962016    -0.53500
C870        C  0.98821351  0.39780383  0.20309783     0.10500
C871        C  0.54123153  0.42941487  0.26204694    -0.53000
C872        C  0.53735042  0.45509558  0.23432220     0.11100
H873        H  0.96966485  0.41701495  0.33035774     0.15600
H874        H  0.49368829  0.45427020  0.18248664     0.01300
H875        H  0.48650090  0.34777521  0.22360642     0.15900
H876        H  0.56713677  0.43586993  0.28091412     0.15700
C877        C  0.86965462  0.39397735  0.28789280     0.87500
C878        C  0.87732783  0.43285326  0.29881639    -0.52800
C879        C  0.89691895  0.45998200  0.26523735     0.10400
C880        C  0.91185249  0.44427132  0.22500717     0.21300
C881        C  0.85258975  0.38497344  0.23863927    -0.53500
C882        C  0.87407399  0.41022574  0.20457738     0.10500
C883        C  0.90757915  0.39742472  0.28306823    -0.53000
C884        C  0.93247117  0.42537251  0.25321646     0.11100
H885        H  0.86657255  0.43706353  0.33166201     0.15600
H886        H  0.92957389  0.46542869  0.19790586     0.01300
H887        H  0.82566877  0.36019762  0.23110212     0.15900
H888        H  0.91389791  0.37875568  0.30366707     0.15700
C889        C  0.86422215  0.03163855  0.28709153     0.87500
C890        C  0.90332975  0.06352724  0.29615417    -0.52800
C891        C  0.93150782  0.06757581  0.26592715     0.10400
C892        C  0.91551879  0.03534136  0.22801746     0.21300
C893        C  0.85577566  0.03647483  0.23599995    -0.53500
C894        C  0.88173619  0.03816075  0.20433702     0.10500
C895        C  0.86792779  0.99707722  0.28711180    -0.53000
C896        C  0.89553783  0.99770421  0.25812849     0.11100
H897        H  0.90610965  0.08271131  0.32363473     0.15600
H898        H  0.93691869  0.03712869  0.20249446     0.01300
H899        H  0.83108352  0.03836800  0.22550462     0.15900
H900        H  0.85491421  0.47902020  0.32654196     0.15700
O901        O  0.69729728  0.02514267  0.41571452    -0.79200
O902        O  0.82273399  0.10833433  0.04438463    -0.79200
O903        O  0.73956261  0.08685102  0.98357353    -0.79200
O904        O  0.82331879  0.03592205  0.44317624    -0.79100
O905        O  0.75599025  0.10594340  0.05614000    -0.79300
O906        O  0.77336661  0.03254160  0.40608827    -0.79200
O907        O  0.80892697  0.08857618  0.97128460    -0.79200
O908        O  0.65415121  0.02206754  0.46635234    -0.79200
C909        C  0.66540369  0.02383054  0.42412318     1.10500
C910        C  0.82849607  0.11410187  0.00000860     1.10400
C911        C  0.74806050  0.11168280  0.01427451     1.10500
C912        C  0.80557966  0.03351701  0.40464228     1.10400
O913        O  0.74092927  0.46263766  0.46454348    -0.79200
O914        O  0.72897455  0.04152941  0.11736053    -0.79200
O915        O  0.67001793  0.48435157  0.03207096    -0.79200
O916        O  0.83881466  0.05792860  0.04557395    -0.79200
O917        O  0.80011141  0.04465791  0.10611656    -0.79200
O918        O  0.67574724  0.45993306  0.47211545    -0.79200
O919        O  0.78066070  0.48905109  0.52118648    -0.79100
O920        O  0.69203803  0.04982429  0.06676466    -0.79200
Co921      Co  0.72556266  0.50122986  0.45190141     1.51500
Co922      Co  0.77520784  0.07165329  0.07779332     1.51700
Co923      Co  0.70901720  0.03475487  0.00811849     1.51600
Co924      Co  0.79875251  0.03912315  0.99392233     1.51500
O925        O  0.75277838  0.03074805  0.02545217    -1.41100
C926        C  0.76088000  0.46065035  0.49760900     1.10400
C927        C  0.69914680  0.04322380  0.10885262     1.10500
C928        C  0.65859382  0.45562397  0.51034633     1.10500
C929        C  0.83114714  0.04962498  0.08939376     1.10400
O930        O  0.92884743  0.21147692  0.46271942    -0.79200
O931        O  0.49629874  0.31545246  0.09782830    -0.79200
O932        O  0.51844518  0.21861607  0.06184488    -0.79200
O933        O  0.94821932  0.30735642  0.01330566    -0.79100
O934        O  0.50116432  0.24874959  0.11026317    -0.79300
O935        O  0.92351261  0.27241755  0.46640079    -0.79200
O936        O  0.01131236  0.35683758  0.04890026    -0.79200
O937        O  0.95763882  0.20212062  0.01924553    -0.79200
C938        C  0.92314860  0.19422344  0.50192252     1.10500
C939        C  0.49936741  0.34580872  0.08174813     1.10400
C940        C  0.50726564  0.22176110  0.10254999     1.10500
C941        C  0.92465679  0.29428627  0.49774206     1.10400
O942        O  0.99325048  0.31512719  0.41076240    -0.79200
O943        O  0.57128412  0.28565720  0.05901345    -0.79200
O944        O  0.49518375  0.19582552  0.46520145    -0.79200
O945        O  0.55371141  0.33852148  0.97177798    -0.79200
O946        O  0.56715623  0.34879384  0.04735643    -0.79200
O947        O  0.00247651  0.25379852  0.41332700    -0.79200
O948        O  0.00823567  0.36616811  0.45217579    -0.79100
O949        O  0.55910767  0.27004672  0.98418511    -0.79200
Co950      Co  0.96580774  0.26484741  0.44630492     1.51500
Co951      Co  0.53076660  0.29782537  0.07468795     1.51700
Co952      Co  0.50518141  0.23552212  0.00085300     1.51600
Co953      Co  0.00014744  0.32287444  0.99301392     1.51500
O954        O  0.49553181  0.27558255  0.01548721    -1.41100
C955        C  0.00333759  0.34990834  0.41262870     1.10400
C956        C  0.58207270  0.28129846  0.01874276     1.10500
C957        C  0.99890527  0.22157997  0.41335508     1.10500
C958        C  0.57650930  0.35729965  0.00406756     1.10400
O959        O  0.67468504  0.27727996  0.45816647    -0.79200
O960        O  0.78439112  0.33239813  0.08734475    -0.79200
O961        O  0.66772204  0.20601866  0.04712031    -0.79200
O962        O  0.76087897  0.35188207  0.00867466    -0.79100
O963        O  0.70723613  0.25688179  0.08908132    -0.79300
O964        O  0.73436564  0.34107843  0.44704744    -0.79200
O965        O  0.83188866  0.37047444  0.03973704    -0.79200
O966        O  0.68326065  0.27346770  0.01128854    -0.79200
C967        C  0.65657277  0.25948316  0.49435138     1.10500
C968        C  0.81766825  0.36214676  0.08114884     1.10400
C969        C  0.67674958  0.22394607  0.08591834     1.10500
C970        C  0.75003239  0.36442939  0.47913670     1.10400
O971        O  0.77819396  0.31110809  0.40558444    -0.79200
O972        O  0.75210503  0.22387035  0.06563198    -0.79200
O973        O  0.67314187  0.19117046  0.45284833    -0.79200
O974        O  0.83005931  0.31178084  0.99227323    -0.79200
O975        O  0.81638788  0.28693264  0.06207728    -0.79200
O976        O  0.71274908  0.24019027  0.40945789    -0.79200
O977        O  0.82275221  0.36108970  0.44324445    -0.79100
O978        O  0.72525844  0.20528003  0.99737710    -0.79200
Co979      Co  0.72745473  0.29065044  0.44023252     1.51500
Co980      Co  0.76290824  0.27647000  0.06555350     1.51700
Co981      Co  0.70575777  0.24033596  0.00632850     1.51600
Co982      Co  0.79458579  0.33010567  0.00342860     1.51200
O983        O  0.75344855  0.28148729  0.98717102    -1.41100
C984        C  0.80961607  0.34233451  0.40541921     1.10400
C985        C  0.74199308  0.20093762  0.03231904     1.10500
C986        C  0.68673502  0.20577421  0.41245635     1.10500
C987        C  0.83771047  0.29717239  0.02655625     1.10400
C988        C  0.62020851  0.28567001  0.01532232    -0.15500
C989        C  0.63507588  0.28235457  0.97461594    -0.30600
H990        H  0.63567853  0.28950760  0.04838533     0.13600
H991        H  0.60949830  0.24500268  0.54390771     0.14100
C992        C  0.87205523  0.29385758  0.02660437    -0.15500
C993        C  0.89065298  0.29384871  0.51462490    -0.30600
H994        H  0.88592179  0.29536335  0.06034614     0.13600
H995        H  0.89221217  0.30680513  0.54863141     0.14100
C996        C  0.76336721  0.42663351  0.50637772    -0.15500
C997        C  0.74357889  0.39638518  0.47972811    -0.30600
H998        H  0.77824188  0.42090064  0.02704484     0.13600
H999        H  0.72364345  0.39617776  0.45364325     0.14100
C1000       C  0.74436590  0.14500528  0.00323103    -0.15500
C1001       C  0.74888219  0.16917077  0.03768264    -0.30600
H1002       H  0.72287163  0.14370055  0.45826551     0.13600
H1003       H  0.75803194  0.16549932  0.07278712     0.14100
C1004       C  0.62630123  0.41925212  0.52274823    -0.15500
C1005       C  0.61191085  0.39123199  0.99100198    -0.30600
H1006       H  0.61499198  0.41547289  0.55850249     0.13600
H1007       H  0.62252644  0.39372866  0.95506583     0.14100
C1008       C  0.88565879  0.16284682  0.51388796    -0.15500
C1009       C  0.86192122  0.14780763  0.98293260    -0.30600
H1010       H  0.89334963  0.14835112  0.04291486     0.13600
H1011       H  0.86195944  0.15886957  0.94763448     0.14100
C1012       C  0.85782440  0.04627595  0.12089232    -0.12300
C1013       C  0.87486272  0.04281038  0.15452505    -0.13900
C1014       C  0.83771158  0.03100729  0.32363708    -0.12300
C1015       C  0.82197555  0.03292588  0.35917797    -0.13900
C1016       C  0.85900194  0.40220853  0.15577472    -0.12300
C1017       C  0.83957116  0.38603337  0.12102344    -0.13900
C1018       C  0.84704895  0.36815929  0.32578594    -0.12300
C1019       C  0.83044498  0.35449738  0.36216937    -0.13900
C1020       C  0.48789909  0.38559656  0.14565722    -0.12300
C1021       C  0.49185503  0.36906128  0.11283958    -0.13900
C1022       C  0.00833824  0.36914894  0.36805432    -0.12300
C1023       C  0.00809143  0.38155638  0.32899486    -0.13900
C1024       C  0.67315000  0.03810949  0.14693887    -0.12300
C1025       C  0.65153530  0.03449215  0.17869716    -0.13900
C1026       C  0.62645843  0.02777442  0.35086609    -0.12300
C1027       C  0.64369474  0.02686286  0.38552068    -0.13900
C1028       C  0.63544140  0.18763626  0.16060859    -0.12300
C1029       C  0.65246128  0.20644118  0.12636308    -0.13900
C1030       C  0.67466324  0.18490507  0.36845222    -0.12300
C1031       C  0.66345956  0.17238452  0.32892073    -0.13900
C1032       C  0.50273331  0.19480412  0.13999326    -0.12300
C1033       C  0.50096132  0.17403033  0.17257037    -0.13900
C1034       C  0.00952990  0.19123224  0.33803453    -0.12300
C1035       C  0.00646363  0.20702279  0.37179351    -0.13900
C1036       C  0.01007995  0.16574754  0.79980504     0.87500
C1037       C  0.53653066  0.14372872  0.79736876    -0.52800
C1038       C  0.53792501  0.13159241  0.75234727     0.10400
C1039       C  0.00395696  0.12031156  0.73221710     0.21300
C1040       C  0.00981714  0.18126233  0.75138251    -0.53500
C1041       C  0.50342089  0.16126763  0.71861203     0.10500
C1042       C  0.97451429  0.12835608  0.80239648    -0.53000
C1043       C  0.96946098  0.10319349  0.76721675     0.11100
H1044       H  0.55778096  0.14996892  0.82477807     0.15600
H1045       H  0.00150852  0.10153441  0.70282691     0.01300
H1046       H  0.01127758  0.20810864  0.74584963     0.15900
H1047       H  0.95429146  0.12471210  0.82933655     0.15700
C1048       C  0.63333249  0.16394972  0.78521403     0.87500
C1049       C  0.61083501  0.12291960  0.79991655    -0.52800
C1050       C  0.59535892  0.09793691  0.76350724     0.10400
C1051       C  0.59396861  0.11875688  0.71764579     0.21300
C1052       C  0.65755762  0.16622634  0.74351935    -0.53500
C1053       C  0.63693510  0.14554785  0.70554761     0.10500
C1054       C  0.60548171  0.17361348  0.76207240    -0.53000
C1055       C  0.57836782  0.14519252  0.73445087     0.11100
H1056       H  0.61092304  0.11465028  0.83670834     0.15600
H1057       H  0.57735263  0.09970564  0.68838270     0.01300
H1058       H  0.68686605  0.18825096  0.74067368     0.15900
H1059       H  0.60183338  0.19594057  0.77655869     0.15700
C1060       C  0.62819868  0.02906512  0.80398129     0.87500
C1061       C  0.58922107  0.99552092  0.80334178    -0.52800
C1062       C  0.56606981  0.99352487  0.76611754     0.10400
C1063       C  0.58683683  0.02903011  0.73242959     0.21300
C1064       C  0.64537667  0.02950848  0.75627003    -0.53500
C1065       C  0.62455008  0.02976029  0.71815354     0.10500
C1066       C  0.62251727  0.06210851  0.80285993    -0.53000
C1067       C  0.60046073  0.06359390  0.76663479     0.11100
H1068       H  0.56795516  0.48209340  0.83290893     0.15600
H1069       H  0.56970965  0.02918742  0.70164734     0.01300
H1070       H  0.67221718  0.03023908  0.75282637     0.15900
H1071       H  0.63760073  0.08367455  0.82889368     0.15700
C1072       C  0.50837505  0.39700749  0.77924279     0.87500
C1073       C  0.97988747  0.41874626  0.79550179    -0.52800
C1074       C  0.97179148  0.43508303  0.75734806     0.10400
C1075       C  0.50205356  0.44054545  0.71555552     0.21300
C1076       C  0.49766987  0.37931747  0.73075018    -0.53500
C1077       C  0.98513654  0.39745943  0.70162434     0.10500
C1078       C  0.54471981  0.43238347  0.77015615    -0.53000
C1079       C  0.54171495  0.45850349  0.74236734     0.11100
H1080       H  0.96808900  0.41614541  0.83071494     0.15600
H1081       H  0.50005685  0.45880032  0.68768043     0.01300
H1082       H  0.49478336  0.35223531  0.72321725     0.15900
H1083       H  0.56991555  0.43815972  0.79023137     0.15700
C1084       C  0.86716647  0.39835485  0.78562546     0.87500
C1085       C  0.87134180  0.43625506  0.79095458    -0.52800
C1086       C  0.89332761  0.46313902  0.75819267     0.10400
C1087       C  0.91101953  0.44637368  0.72196061     0.21300
C1088       C  0.85272496  0.38606154  0.73592691    -0.53500
C1089       C  0.87487035  0.41013972  0.70128215     0.10500
C1090       C  0.90605356  0.40401962  0.78658143    -0.53000
C1091       C  0.93140771  0.42962256  0.75515655     0.11100
H1092       H  0.85561916  0.43931658  0.81951009     0.15600
H1093       H  0.92945447  0.46646658  0.69433135     0.01300
H1094       H  0.82702372  0.35993697  0.72858946     0.15900
H1095       H  0.91150068  0.38626299  0.81020633     0.15700
C1096       C  0.86453784  0.03797164  0.78425272     0.87500
C1097       C  0.90563335  0.06006234  0.79848326    -0.52800
C1098       C  0.93148109  0.06683911  0.76368891     0.10400
C1099       C  0.91158176  0.04167489  0.71935879     0.21300
C1100       C  0.86042022  0.05484671  0.73791858    -0.53500
C1101       C  0.88289478  0.05465341  0.70226435     0.10500
C1102       C  0.85816530  0.00027060  0.76967911    -0.53000
C1103       C  0.88545046  0.00089994  0.74047944     0.11100
H1104       H  0.91282757  0.07060786  0.83432507     0.15600
H1105       H  0.93117098  0.04319085  0.69121662     0.01300
H1106       H  0.83777229  0.06105865  0.73188954     0.15900
H1107       H  0.85939301  0.48875262  0.82485989     0.15700
O1108       O  0.71395869  0.03179529  0.92543030    -0.79200
O1109       O  0.81274604  0.10711242  0.53991502    -0.79200
O1110       O  0.72580871  0.08062407  0.47276261    -0.79200
O1111       O  0.83395581  0.04104826  0.94801947    -0.79100
O1112       O  0.74489720  0.10296202  0.54404284    -0.79300
O1113       O  0.77868621  0.02443569  0.91376595    -0.79200
O1114       O  0.80370889  0.08820283  0.46635689    -0.79200
O1115       O  0.66805039  0.03015051  0.96901994    -0.79200
C1116       C  0.68197188  0.03055221  0.92841720     1.10500
C1117       C  0.82176151  0.11332653  0.49640814     1.10400
C1118       C  0.73836500  0.10763524  0.50094063     1.10500
C1119       C  0.81374875  0.03405418  0.91084437     1.10400
O1120       O  0.74188565  0.46168681  0.95792190    -0.79200
O1121       O  0.71688213  0.03898048  0.60880271    -0.79200
O1122       O  0.66859050  0.48314916  0.53655089    -0.79200
O1123       O  0.82899704  0.05589190  0.54216038    -0.79200
O1124       O  0.78912316  0.04383740  0.60123684    -0.79200
O1125       O  0.67847793  0.46083947  0.96891745    -0.79200
O1126       O  0.78243470  0.48512471  0.01418146    -0.79100
O1127       O  0.68025660  0.04571414  0.55696163    -0.79200
Co1128     Co  0.72938098  0.50279973  0.95158421     1.51500
Co1129     Co  0.76394518  0.06969243  0.57005944     1.51700
Co1130     Co  0.69764781  0.02927722  0.50008882     1.51600
Co1131     Co  0.78984213  0.03733399  0.48941641     1.51500
O1132       O  0.74345896  0.02949818  0.51686763    -1.41100
C1133       C  0.76144597  0.45772736  0.98960997     1.10400
C1134       C  0.68680339  0.03991130  0.59944721     1.10500
C1135       C  0.66047178  0.45676042  0.00638102     1.10500
C1136       C  0.82111259  0.04993772  0.58632921     1.10400
O1137       O  0.93214145  0.21242724  0.95796676    -0.79200
O1138       O  0.49888570  0.31935006  0.59876851    -0.79200
O1139       O  0.51232127  0.21865481  0.55887727    -0.79200
O1140       O  0.95555752  0.31736274  0.51499156    -0.79100
O1141       O  0.50002380  0.25127849  0.60894418    -0.79300
O1142       O  0.92928888  0.27433679  0.95037190    -0.79200
O1143       O  0.01820217  0.36019290  0.54981508    -0.79200
O1144       O  0.95003663  0.20303200  0.53044997    -0.79200
C1145       C  0.92927192  0.19345943  0.99441928     1.10500
C1146       C  0.50142571  0.34952243  0.58250129     1.10400
C1147       C  0.50471874  0.22368519  0.60092681     1.10500
C1148       C  0.92250156  0.28961700  0.98405564     1.10400
O1149       O  0.00434645  0.31532366  0.90987643    -0.79200
O1150       O  0.56789057  0.28363581  0.54967013    -0.79200
O1151       O  0.50715380  0.19690339  0.96766111    -0.79200
O1152       O  0.55023031  0.33997865  0.46996055    -0.79200
O1153       O  0.56585197  0.34874909  0.54492760    -0.79200
O1154       O  0.00916092  0.24918835  0.91780569    -0.79200
O1155       O  0.99946818  0.35887689  0.94920004    -0.79100
O1156       O  0.54819346  0.26898383  0.47675583    -0.79200
Co1157     Co  0.97231948  0.26452306  0.94365857     1.51500
Co1158     Co  0.52978465  0.29879842  0.57172718     1.51700
Co1159     Co  0.49607955  0.23562360  0.49955706     1.51600
Co1160     Co  0.00460359  0.32679331  0.49218681     1.51500
O1161       O  0.49067631  0.27774226  0.51561639    -1.41100
C1162       C  0.00276380  0.34576109  0.90996401     1.10400
C1163       C  0.57414590  0.27889111  0.50677957     1.10500
C1164       C  0.01073884  0.21886968  0.91980258     1.10500
C1165       C  0.57389865  0.35804049  0.50189771     1.10400
O1166       O  0.68442745  0.27999661  0.93407266    -0.79200
O1167       O  0.78554552  0.32088144  0.60010031    -0.79200
O1168       O  0.69244170  0.20016225  0.55123857    -0.79200
O1169       O  0.77150316  0.36027738  0.50741991    -0.79100
O1170       O  0.71899155  0.24559971  0.60415872    -0.79300
O1171       O  0.74929233  0.34485543  0.93194314    -0.79200
O1172       O  0.82578256  0.35089819  0.54242683    -0.79200
O1173       O  0.66699827  0.23959595  0.51576184    -0.79200
C1174       C  0.66984993  0.27954021  0.97373210     1.10500
C1175       C  0.81634916  0.34904478  0.58589847     1.10400
C1176       C  0.69450579  0.21198646  0.59324449     1.10500
C1177       C  0.75112804  0.36132487  0.97036649     1.10400
O1178       O  0.78832582  0.30609068  0.89998629    -0.79200
O1179       O  0.76125344  0.22060683  0.55227685    -0.79200
O1180       O  0.67478324  0.21539782  0.94695655    -0.79200
O1181       O  0.80954660  0.29255009  0.47111664    -0.79200
O1182       O  0.82171491  0.28874294  0.54573116    -0.79200
O1183       O  0.72394854  0.24188046  0.90129634    -0.79200
O1184       O  0.81595574  0.35714231  0.94152747    -0.79100
O1185       O  0.74681336  0.21814953  0.47661167    -0.79200
Co1186     Co  0.73788463  0.29234198  0.92122554     1.51500
Co1187     Co  0.76956676  0.27038673  0.57174368     1.51700
Co1188     Co  0.70787678  0.23195673  0.49242196     1.51600
Co1189     Co  0.78893158  0.32535246  0.48792005     1.51200
O1190       O  0.74467981  0.28246258  0.51357280    -1.41100
C1191       C  0.81260810  0.33979633  0.90330759     1.10400
C1192       C  0.75837896  0.20684999  0.51154477     1.10500
C1193       C  0.68995385  0.21802124  0.90677611     1.10500
C1194       C  0.82868057  0.28745218  0.50222435     1.10400
C1195       C  0.61005301  0.28184302  0.49136453    -0.15500
C1196       C  0.62361676  0.26151484  0.51244662    -0.30600
H1197       H  0.62237673  0.29649870  0.45818945     0.13600
H1198       H  0.62029453  0.27950415  0.94123093     0.14100
C1199       C  0.85998538  0.28218380  0.48734894    -0.15500
C1200       C  0.88608958  0.28891038  0.98613916    -0.30600
H1201       H  0.85951938  0.27219773  0.45163406     0.13600
H1202       H  0.87051578  0.28461792  0.95306570     0.14100
C1203       C  0.76141279  0.42222223  0.99768711    -0.15500
C1204       C  0.74462789  0.39344761  0.96777604    -0.30600
H1205       H  0.78371679  0.42747640  0.53223582     0.13600
H1206       H  0.72957517  0.39562000  0.93691339     0.14100
C1207       C  0.74209288  0.14370017  0.48525576    -0.15500
C1208       C  0.76496803  0.17497419  0.50902937    -0.30600
H1209       H  0.73563767  0.14841306  0.96777106     0.13600
H1210       H  0.78340771  0.17379487  0.53633125     0.14100
C1211       C  0.62812108  0.42047809  0.02042820    -0.15500
C1212       C  0.60895648  0.39230525  0.49007049    -0.30600
H1213       H  0.61592123  0.41850642  0.05527536     0.13600
H1214       H  0.61868776  0.39692282  0.45346282     0.14100
C1215       C  0.89346602  0.16157067  0.00910738    -0.15500
C1216       C  0.85679471  0.14736419  0.48265391    -0.30600
H1217       H  0.88225488  0.15092978  0.54945084     0.13600
H1218       H  0.86042126  0.15730011  0.44605067     0.14100
C1219       C  0.84925629  0.05190598  0.62029640    -0.12300
C1220       C  0.86943269  0.05403868  0.65376512    -0.13900
C1221       C  0.84138151  0.03676955  0.82494122    -0.12300
C1222       C  0.82913006  0.03675838  0.86401300    -0.13900
C1223       C  0.86177525  0.39808636  0.65216578    -0.12300
C1224       C  0.84205988  0.37782827  0.61971549    -0.13900
C1225       C  0.84508704  0.37361393  0.82419021    -0.12300
C1226       C  0.83178612  0.35853799  0.86129559    -0.13900
C1227       C  0.49463480  0.39133876  0.64755415    -0.12300
C1228       C  0.49656485  0.37399343  0.61433886    -0.13900
C1229       C  0.00547305  0.36465588  0.86509988    -0.12300
C1230       C  0.00461937  0.37848865  0.82700759    -0.13900
C1231       C  0.66014777  0.03512803  0.63700926    -0.12300
C1232       C  0.64003790  0.03212242  0.67062918    -0.13900
C1233       C  0.64965583  0.02987301  0.84663029    -0.12300
C1234       C  0.66382360  0.03123014  0.88489883    -0.13900
C1235       C  0.65147304  0.16333122  0.65974893    -0.12300
C1236       C  0.66989014  0.18557456  0.62873969    -0.13900
C1237       C  0.66856098  0.19899669  0.86509908    -0.12300
C1238       C  0.65361960  0.18603464  0.82729914    -0.13900
C1239       C  0.50296414  0.19892780  0.63994716    -0.12300
C1240       C  0.50271358  0.18008162  0.67409766    -0.13900
C1241       C  0.01362316  0.18946326  0.83952649    -0.12300
C1242       C  0.01461077  0.20393905  0.87649067    -0.13900
C1243       C  0.00577098  0.66349322  0.29651959     0.87500
C1244       C  0.54280396  0.66045402  0.29808252    -0.52800
C1245       C  0.54327023  0.63897459  0.26156697     0.10400
C1246       C  0.00072898  0.61981893  0.22742717     0.21300
C1247       C  0.99773461  0.67584410  0.24892485    -0.53500
C1248       C  0.50013151  0.65728466  0.21944431     0.10500
C1249       C  0.97620728  0.62320172  0.30419632    -0.53000
C1250       C  0.96917703  0.59986028  0.26642087     0.11100
H1251       H  0.56613464  0.67772330  0.32130973     0.15600
H1252       H  0.99883029  0.60140515  0.19786791     0.01300
H1253       H  0.99497993  0.70061827  0.24463760     0.15900
H1254       H  0.96113412  0.61467173  0.33768218     0.15700
C1255       C  0.64673317  0.66430020  0.27739833     0.87500
C1256       C  0.64760276  0.63016781  0.26038629    -0.52800
C1257       C  0.61664176  0.60612849  0.23354085     0.10400
C1258       C  0.59503226  0.62647014  0.21358126     0.21300
C1259       C  0.65242917  0.68633757  0.23164697    -0.53500
C1260       C  0.62680721  0.66606365  0.19690262     0.10500
C1261       C  0.60616009  0.65096633  0.29251862    -0.53000
C1262       C  0.57874909  0.63529673  0.25778414     0.11100
H1263       H  0.66625291  0.62175349  0.27754319     0.15600
H1264       H  0.57382793  0.61062439  0.18564602     0.01300
H1265       H  0.67697920  0.71364485  0.22532748     0.15900
H1266       H  0.60077362  0.65558917  0.32872161     0.15700
C1267       C  0.61105556  0.52963319  0.30974696     0.87500
C1268       C  0.57210190  0.49795790  0.29972423    -0.52800
C1269       C  0.56062847  0.49493413  0.25262470     0.10400
C1270       C  0.58903049  0.53015888  0.22236488     0.21300
C1271       C  0.63729060  0.52877071  0.27114443    -0.53500
C1272       C  0.62581340  0.52882246  0.22561226     0.10500
C1273       C  0.60557888  0.56222058  0.29897151    -0.53000
C1274       C  0.59785411  0.56594805  0.25192251     0.11100
H1275       H  0.56047037  0.97241201  0.31944083     0.15600
H1276       H  0.57921275  0.53046037  0.18548475     0.01300
H1277       H  0.66290112  0.52792357  0.27945315     0.15900
H1278       H  0.61277152  0.58372058  0.32549565     0.15700
C1279       C  0.50292766  0.89433764  0.27574039     0.87500
C1280       C  0.98609393  0.91395838  0.28446304    -0.52800
C1281       C  0.97449819  0.92907513  0.24850590     0.10400
C1282       C  0.49496912  0.93433513  0.20870863     0.21300
C1283       C  0.48406633  0.87174948  0.23168385    -0.53500
C1284       C  0.98747415  0.89316797  0.19060289     0.10500
C1285       C  0.54003971  0.92496735  0.25632860    -0.53000
C1286       C  0.53697954  0.95103381  0.22815458     0.11100
H1287       H  0.97680109  0.91127434  0.32105151     0.15600
H1288       H  0.49219482  0.95115031  0.17944950     0.01300
H1289       H  0.47749932  0.84295911  0.22764852     0.15900
H1290       H  0.56642093  0.93024770  0.27287614     0.15700
C1291       C  0.87705910  0.90181300  0.29650837     0.87500
C1292       C  0.88785564  0.94214946  0.30149894    -0.52800
C1293       C  0.90299050  0.96441674  0.26205920     0.10400
C1294       C  0.91360238  0.94308864  0.22357455     0.21300
C1295       C  0.85520317  0.88777131  0.25037012    -0.53500
C1296       C  0.87410314  0.90786441  0.21118663     0.10500
C1297       C  0.91311383  0.90250405  0.28853498    -0.53000
C1298       C  0.93533596  0.92555913  0.25274437     0.11100
H1299       H  0.88165307  0.95152976  0.33434114     0.15600
H1300       H  0.92924953  0.96044487  0.19234305     0.01300
H1301       H  0.82786887  0.86241723  0.24849673     0.15900
H1302       H  0.91915981  0.88418511  0.31018112     0.15700
C1303       C  0.86395156  0.53149857  0.29206947     0.87500
C1304       C  0.90216232  0.56565999  0.29285619    -0.52800
C1305       C  0.92904969  0.56615598  0.26311260     0.10400
C1306       C  0.91141736  0.53013232  0.23091878     0.21300
C1307       C  0.85075647  0.52886161  0.24127528    -0.53500
C1308       C  0.87502349  0.52836320  0.20868782     0.10500
C1309       C  0.87089335  0.49899989  0.29903079    -0.53000
C1310       C  0.89475359  0.49613339  0.26678897     0.11100
H1311       H  0.90593091  0.58857492  0.31491188     0.15600
H1312       H  0.93110635  0.52964021  0.20440480     0.01300
H1313       H  0.82439523  0.52780237  0.23164981     0.15900
H1314       H  0.84826786  0.97333866  0.30840850     0.15700
O1315       O  0.69911168  0.52916889  0.42214492    -0.79200
O1316       O  0.81791472  0.59587994  0.06724077    -0.79200
O1317       O  0.73938553  0.59040365  0.99921489    -0.79200
O1318       O  0.82314909  0.53495788  0.44786195    -0.79100
O1319       O  0.75343560  0.59644763  0.07537941    -0.79300
O1320       O  0.77357092  0.53255956  0.41085792    -0.79200
O1321       O  0.81322495  0.59053362  0.98959972    -0.79200
O1322       O  0.65722921  0.52809743  0.47350367    -0.79200
C1323       C  0.66760657  0.52868593  0.43093943     1.10500
C1324       C  0.82912024  0.60976321  0.02628488     1.10400
C1325       C  0.75043827  0.61044906  0.03621366     1.10500
C1326       C  0.80585558  0.53367409  0.40947820     1.10400
O1327       O  0.74328354  0.96288244  0.45898544    -0.79200
O1328       O  0.71703178  0.52312360  0.11916121    -0.79200
O1329       O  0.67635726  0.98584234  0.03869855    -0.79200
O1330       O  0.83034774  0.54399155  0.05194813    -0.79200
O1331       O  0.78692986  0.52284645  0.10810551    -0.79200
O1332       O  0.67685462  0.95684918  0.46775970    -0.79200
O1333       O  0.78100990  0.98989592  0.51719716    -0.79100
O1334       O  0.68747957  0.54445880  0.07391354    -0.79200
Co1335     Co  0.72556668  0.99951330  0.44642087     1.51500
Co1336     Co  0.76683490  0.55640985  0.08823610     1.51700
Co1337     Co  0.70560617  0.53579385  0.01157763     1.51600
Co1338     Co  0.79453722  0.53628563  0.99782549     1.51500
O1339       O  0.74716420  0.52677329  0.02522722    -1.41100
C1340       C  0.76272560  0.96146998  0.49299504     1.10400
C1341       C  0.69092407  0.53116757  0.11349120     1.10500
C1342       C  0.66016994  0.95248889  0.50643071     1.10500
C1343       C  0.81951019  0.53049835  0.09352842     1.10400
O1344       O  0.92923372  0.70983148  0.45653369    -0.79200
O1345       O  0.48981828  0.81481184  0.08322792    -0.79200
O1346       O  0.50527433  0.70315121  0.05730601    -0.79200
O1347       O  0.93747429  0.78733581  0.00298577    -0.79100
O1348       O  0.50097354  0.74642607  0.09872792    -0.79300
O1349       O  0.92450816  0.77104740  0.44425266    -0.79200
O1350       O  0.99675831  0.85254995  0.03384108    -0.79200
O1351       O  0.94003234  0.70820682  0.01660141    -0.79200
C1352       C  0.92335411  0.69522728  0.49776805     1.10500
C1353       C  0.48630105  0.84419738  0.07439203     1.10400
C1354       C  0.50218631  0.71527120  0.09700086     1.10500
C1355       C  0.92102404  0.79087887  0.47480576     1.10400
O1356       O  0.99822669  0.81087268  0.39670619    -0.79200
O1357       O  0.57288359  0.79117803  0.05002325    -0.79200
O1358       O  0.49241321  0.69715474  0.46200843    -0.79200
O1359       O  0.54196816  0.85519531  0.97507190    -0.79200
O1360       O  0.56451138  0.85083413  0.04275989    -0.79200
O1361       O  0.00544825  0.74961284  0.41124636    -0.79200
O1362       O  0.00400759  0.86041215  0.43402337    -0.79100
O1363       O  0.55280166  0.75361667  0.99106225    -0.79200
Co1364     Co  0.96754378  0.76199551  0.43535389     1.51500
Co1365     Co  0.52733497  0.79768135  0.05908416     1.51700
Co1366     Co  0.50136837  0.73707231  0.01470643     1.51600
Co1367     Co  0.98950804  0.81920911  0.98152098     1.51500
O1368       O  0.50203852  0.77981784  0.98572440    -1.41100
C1369       C  0.00494380  0.84480827  0.39588163     1.10400
C1370       C  0.57961408  0.77480903  0.01722460     1.10500
C1371       C  0.99973005  0.71675548  0.41288272     1.10500
C1372       C  0.56872353  0.86768496  0.00384712     1.10400
O1373       O  0.68654155  0.78239717  0.43325720    -0.79200
O1374       O  0.78283538  0.81607053  0.10508405    -0.79200
O1375       O  0.68594466  0.70496104  0.03954666    -0.79200
O1376       O  0.78174836  0.86248183  0.01334366    -0.79100
O1377       O  0.71242689  0.74784946  0.09525907    -0.79300
O1378       O  0.74807805  0.84663838  0.43943260    -0.79200
O1379       O  0.82990915  0.84665560  0.05564073    -0.79200
O1380       O  0.67486841  0.75502065  0.00172798    -0.79200
C1381       C  0.66449473  0.76910889  0.46779616     1.10500
C1382       C  0.81566323  0.84358671  0.09638003     1.10400
C1383       C  0.68549112  0.71676635  0.08103112     1.10500
C1384       C  0.75807647  0.86798856  0.47427019     1.10400
O1385       O  0.79605000  0.81622689  0.41574411    -0.79200
O1386       O  0.75184423  0.71460635  0.05076087    -0.79200
O1387       O  0.67848449  0.70049328  0.44090187    -0.79200
O1388       O  0.82112931  0.79464374  0.98170941    -0.79200
O1389       O  0.81787639  0.77998723  0.05747989    -0.79200
O1390       O  0.72929198  0.74538079  0.40591807    -0.79200
O1391       O  0.83423272  0.86686775  0.45740277    -0.79100
O1392       O  0.74718314  0.72006052  0.97410007    -0.79200
Co1393     Co  0.74112785  0.79596199  0.43365403     1.51500
Co1394     Co  0.76488449  0.76628430  0.07294502     1.51700
Co1395     Co  0.71228220  0.73986529  0.98455767     1.51600
Co1396     Co  0.79981969  0.82788262  0.99533333     1.51200
O1397       O  0.75125224  0.78568984  0.01121748    -1.41100
C1398       C  0.82432914  0.84958524  0.41814442     1.10400
C1399       C  0.75172133  0.70320222  0.00890741     1.10500
C1400       C  0.69782868  0.71442578  0.40322170     1.10500
C1401       C  0.83227306  0.78312568  0.01688473     1.10400
C1402       C  0.61751697  0.77825292  0.01260669    -0.15500
C1403       C  0.63013688  0.77134016  0.97188420    -0.30600
H1404       H  0.63537142  0.78604954  0.04409256     0.13600
H1405       H  0.61567733  0.77247820  0.43853988     0.14100
C1406       C  0.86467903  0.77693496  0.01345755    -0.15500
C1407       C  0.88430166  0.78935544  0.47975164    -0.30600
H1408       H  0.88004138  0.77921919  0.04620188     0.13600
H1409       H  0.86779197  0.78490667  0.44748490     0.14100
C1410       C  0.76616821  0.92807512  0.50224314    -0.15500
C1411       C  0.75057106  0.89923192  0.47244244    -0.30600
H1412       H  0.79691063  0.93152650  0.03522185     0.13600
H1413       H  0.73363776  0.89974335  0.44266589     0.14100
C1414       C  0.75684213  0.64912934  0.03772384    -0.15500
C1415       C  0.75226977  0.66780647  0.00109379    -0.30600
H1416       H  0.72962310  0.64689164  0.46307823     0.13600
H1417       H  0.74602148  0.65568512  0.96582781     0.14100
C1418       C  0.62961347  0.91577987  0.52086367    -0.15500
C1419       C  0.60425514  0.90174376  0.99213994    -0.30600
H1420       H  0.61882890  0.91262454  0.55683607     0.13600
H1421       H  0.61003384  0.90989588  0.95488709     0.14100
C1422       C  0.88621105  0.66487885  0.51226718    -0.15500
C1423       C  0.86359559  0.64655765  0.02370775    -0.30600
H1424       H  0.86802330  0.64748906  0.94960563     0.13600
H1425       H  0.87669270  0.66025039  0.05692920     0.14100
C1426       C  0.84541451  0.52675389  0.12562689    -0.12300
C1427       C  0.86425465  0.52656973  0.15914299    -0.13900
C1428       C  0.83902149  0.53300364  0.32899707    -0.12300
C1429       C  0.82297817  0.53458469  0.36425897    -0.13900
C1430       C  0.85751554  0.89201173  0.16470240    -0.12300
C1431       C  0.83816875  0.87102595  0.13286223    -0.13900
C1432       C  0.85814717  0.88027480  0.33865414    -0.12300
C1433       C  0.84462233  0.86610888  0.37600666    -0.13900
C1434       C  0.47720439  0.87843400  0.14753494    -0.12300
C1435       C  0.47868972  0.86242312  0.11261516    -0.13900
C1436       C  0.01386947  0.86440877  0.35067420    -0.12300
C1437       C  0.01621686  0.87858149  0.31186824    -0.13900
C1438       C  0.66634566  0.52754836  0.15251000    -0.12300
C1439       C  0.64690696  0.52744116  0.18499222    -0.13900
C1440       C  0.62678740  0.53000818  0.35752601    -0.12300
C1441       C  0.64494790  0.53046873  0.39217843    -0.13900
C1442       C  0.63650962  0.67836103  0.14814343    -0.12300
C1443       C  0.65541926  0.69418953  0.11361633    -0.13900
C1444       C  0.68545595  0.69632960  0.35723114    -0.12300
C1445       C  0.67228546  0.68339383  0.31836931    -0.13900
C1446       C  0.49873665  0.69259398  0.13931170    -0.12300
C1447       C  0.49847085  0.67342182  0.17314764    -0.13900
C1448       C  0.00750211  0.68612730  0.33653166    -0.12300
C1449       C  0.00550680  0.70074023  0.37191412    -0.13900
C1450       C  0.01220483  0.66083096  0.79888720     0.87500
C1451       C  0.53928530  0.65390688  0.80638615    -0.52800
C1452       C  0.54321755  0.63749465  0.76655418     0.10400
C1453       C  0.00650750  0.62141522  0.72504253     0.21300
C1454       C  0.00241188  0.67506815  0.75425216    -0.53500
C1455       C  0.50014028  0.65576421  0.72605240     0.10500
C1456       C  0.98392034  0.61972742  0.80451942    -0.53000
C1457       C  0.97535705  0.59906768  0.76380601     0.11100
H1458       H  0.56002400  0.66813257  0.83397539     0.15600
H1459       H  0.00465295  0.60474789  0.69344156     0.01300
H1460       H  0.99921138  0.69972664  0.75364873     0.15900
H1461       H  0.96876630  0.60907919  0.83778303     0.15700
C1462       C  0.65010532  0.66996653  0.77513385     0.87500
C1463       C  0.64948316  0.63438613  0.76180582    -0.52800
C1464       C  0.61777693  0.60933166  0.73700641     0.10400
C1465       C  0.59584103  0.62873403  0.71587123     0.21300
C1466       C  0.65446317  0.68927803  0.72787204    -0.53500
C1467       C  0.62714196  0.66741521  0.69580181     0.10500
C1468       C  0.61051887  0.65893387  0.79159151    -0.53000
C1469       C  0.58140454  0.63991396  0.75962800     0.11100
H1470       H  0.66851308  0.62665762  0.77937519     0.15600
H1471       H  0.57369895  0.61161792  0.68951211     0.01300
H1472       H  0.67858496  0.71633824  0.71907317     0.15900
H1473       H  0.60786015  0.66772207  0.82673241     0.15700
C1474       C  0.61884099  0.53669252  0.81250400     0.87500
C1475       C  0.58093951  0.50287967  0.80473183    -0.52800
C1476       C  0.56670792  0.49864980  0.75892041     0.10400
C1477       C  0.59180213  0.53418786  0.72704439     0.21300
C1478       C  0.64447523  0.53781844  0.77142139    -0.53500
C1479       C  0.63036043  0.53638076  0.72678897     0.10500
C1480       C  0.60946043  0.56705058  0.80302843    -0.53000
C1481       C  0.59962636  0.56959135  0.75654040     0.11100
H1482       H  0.58268204  0.97444072  0.83043262     0.15600
H1483       H  0.57981981  0.53317502  0.69111889     0.01300
H1484       H  0.67172613  0.53980664  0.77743056     0.15900
H1485       H  0.61649251  0.58876195  0.82920484     0.15700
C1486       C  0.49121648  0.88984525  0.77621856     0.87500
C1487       C  0.94962904  0.88736753  0.75348003    -0.52800
C1488       C  0.95740440  0.91967440  0.72858344     0.10400
C1489       C  0.50276206  0.94217871  0.71433834     0.21300
C1490       C  0.50779119  0.88570319  0.73065370    -0.53500
C1491       C  0.00265492  0.90589941  0.68603312     0.10500
C1492       C  0.51755057  0.92935656  0.79309506    -0.53000
C1493       C  0.52795340  0.95748285  0.75991868     0.11100
H1494       H  0.92292922  0.86954919  0.77128497     0.15600
H1495       H  0.50769666  0.96384503  0.68710567     0.01300
H1496       H  0.51095726  0.86151632  0.72384473     0.15900
H1497       H  0.52808746  0.93327239  0.82917416     0.15700
C1498       C  0.88337443  0.91661970  0.80042986     0.87500
C1499       C  0.88405685  0.95283779  0.79532111    -0.52800
C1500       C  0.89515121  0.97012123  0.75139896     0.10400
C1501       C  0.90769847  0.94763349  0.71728870     0.21300
C1502       C  0.86003092  0.89247554  0.75792483    -0.53500
C1503       C  0.87197235  0.90874662  0.71428392     0.10500
C1504       C  0.92426983  0.92908174  0.79258390    -0.53000
C1505       C  0.93649244  0.93944254  0.74658531     0.11100
H1506       H  0.87575501  0.96360668  0.82512414     0.15600
H1507       H  0.91830412  0.96128306  0.68214297     0.01300
H1508       H  0.83531410  0.86499026  0.76237713     0.15900
H1509       H  0.93982141  0.92259449  0.81911656     0.15700
C1510       C  0.86873004  0.54089755  0.78954552     0.87500
C1511       C  0.90823299  0.57315895  0.78855677    -0.52800
C1512       C  0.93303645  0.57078346  0.75760545     0.10400
C1513       C  0.91167344  0.53536273  0.72457260     0.21300
C1514       C  0.85427174  0.53965566  0.73949084    -0.53500
C1515       C  0.87641748  0.53763727  0.70480527     0.10500
C1516       C  0.87310015  0.50663606  0.79453001    -0.53000
C1517       C  0.89374803  0.50098976  0.75994079     0.11100
H1518       H  0.91523799  0.59647271  0.81185250     0.15600
H1519       H  0.92957562  0.53330775  0.69668532     0.01300
H1520       H  0.82909060  0.54147741  0.73186596     0.15900
H1521       H  0.83613922  0.97508910  0.78663658     0.15700
O1522       O  0.70670769  0.53557106  0.92666769    -0.79200
O1523       O  0.81658079  0.60701857  0.54325525    -0.79200
O1524       O  0.72991761  0.58395360  0.48068414    -0.79200
O1525       O  0.82924594  0.53919702  0.95041956    -0.79100
O1526       O  0.75021683  0.60574748  0.55171656    -0.79300
O1527       O  0.77935945  0.53704246  0.91437484    -0.79200
O1528       O  0.80394760  0.58736559  0.47030937    -0.79200
O1529       O  0.66601373  0.53750295  0.97724161    -0.79200
C1530       C  0.67623757  0.53712611  0.93481756     1.10500
C1531       C  0.82326621  0.61288421  0.49913488     1.10400
C1532       C  0.74285754  0.61075663  0.50911936     1.10500
C1533       C  0.81237382  0.53966093  0.91229564     1.10400
O1534       O  0.74349886  0.95949377  0.97769366    -0.79200
O1535       O  0.72265686  0.54141160  0.61569239    -0.79200
O1536       O  0.66872761  0.98035485  0.53125245    -0.79200
O1537       O  0.83027787  0.55418129  0.54543268    -0.79200
O1538       O  0.79170040  0.54300127  0.60528444    -0.79200
O1539       O  0.67958119  0.96072452  0.97452660    -0.79200
O1540       O  0.79369310  0.99245641  0.01935973    -0.79100
O1541       O  0.68497148  0.54923043  0.56662466    -0.79200
Co1542     Co  0.73220853  0.99913280  0.95759022     1.51500
Co1543     Co  0.76824076  0.57087824  0.57547977     1.51700
Co1544     Co  0.69989526  0.53258550  0.50716035     1.51600
Co1545     Co  0.79004845  0.53667693  0.49387357     1.51500
O1546       O  0.74467094  0.53026446  0.52277354    -1.41100
C1547       C  0.76929092  0.96149237  0.00436409     1.10400
C1548       C  0.69305979  0.54342818  0.60855187     1.10500
C1549       C  0.66314215  0.95801175  0.01281840     1.10500
C1550       C  0.82235736  0.54660975  0.58934953     1.10400
O1551       O  0.93253685  0.70551801  0.93926330    -0.79200
O1552       O  0.50034844  0.81839665  0.59850185    -0.79200
O1553       O  0.51860799  0.71527602  0.57087098    -0.79200
O1554       O  0.94942706  0.81262443  0.49859395    -0.79100
O1555       O  0.50227584  0.74918826  0.61349741    -0.79300
O1556       O  0.92477714  0.76585174  0.93095342    -0.79200
O1557       O  0.01518329  0.85986517  0.53158255    -0.79200
O1558       O  0.94999228  0.70545571  0.52689367    -0.79200
C1559       C  0.91937245  0.69385255  0.98024147     1.10500
C1560       C  0.50653589  0.85010912  0.58278075     1.10400
C1561       C  0.50839635  0.72159164  0.61018667     1.10500
C1562       C  0.91416257  0.77318995  0.96953743     1.10400
O1563       O  0.99880429  0.80611964  0.88563547    -0.79200
O1564       O  0.57205784  0.78350863  0.55883123    -0.79200
O1565       O  0.48743820  0.69948327  0.96385665    -0.79200
O1566       O  0.55256167  0.83772302  0.46966688    -0.79200
O1567       O  0.56836041  0.84640451  0.54508343    -0.79200
O1568       O  0.00760358  0.74620641  0.89914543    -0.79200
O1569       O  0.97508722  0.83569240  0.92198670    -0.79100
O1570       O  0.55616651  0.76193511  0.48749079    -0.79200
Co1571     Co  0.96891864  0.75754840  0.91889842     1.51500
Co1572     Co  0.53184605  0.79729899  0.57413737     1.51700
Co1573     Co  0.50465111  0.73313973  0.51307845     1.51600
Co1574     Co  0.00051201  0.82325332  0.47867444     1.51500
O1575       O  0.49527399  0.77587493  0.51412038    -1.41100
C1576       C  0.98535889  0.82777461  0.88378928     1.10400
C1577       C  0.58081697  0.77542593  0.51929900     1.10500
C1578       C  0.00301279  0.71466954  0.90983657     1.10500
C1579       C  0.57654893  0.85492623  0.50170427     1.10400
O1580       O  0.68760169  0.78275631  0.93467415    -0.79200
O1581       O  0.77682059  0.82106903  0.60444550    -0.79200
O1582       O  0.68579506  0.70561282  0.54245255    -0.79200
O1583       O  0.77506634  0.86260534  0.50798115    -0.79100
O1584       O  0.70904067  0.75076644  0.59569402    -0.79300
O1585       O  0.74688580  0.84698153  0.95017219    -0.79200
O1586       O  0.82489063  0.85218175  0.55663544    -0.79200
O1587       O  0.67187049  0.75186075  0.49875944    -0.79200
C1588       C  0.66598139  0.77029290  0.96981322     1.10500
C1589       C  0.80998369  0.84816157  0.59735781     1.10400
C1590       C  0.68345675  0.71866614  0.58204364     1.10500
C1591       C  0.76032557  0.86732020  0.98564657     1.10400
O1592       O  0.79893518  0.82519521  0.91160102    -0.79200
O1593       O  0.75330245  0.72089803  0.55906899    -0.79200
O1594       O  0.68005601  0.70615127  0.93566161    -0.79200
O1595       O  0.81994385  0.79804184  0.48797311    -0.79200
O1596       O  0.81767539  0.78747291  0.56432416    -0.79200
O1597       O  0.73311344  0.75073368  0.90345076    -0.79200
O1598       O  0.84000181  0.86739977  0.96183108    -0.79100
O1599       O  0.74757651  0.71941654  0.48127804    -0.79200
Co1600     Co  0.74333525  0.79918968  0.93531586     1.51500
Co1601     Co  0.76268304  0.77136613  0.57625370     1.51700
Co1602     Co  0.71093629  0.73807765  0.48614444     1.51600
Co1603     Co  0.79584903  0.82931050  0.49588328     1.51200
O1604       O  0.74804539  0.78612170  0.51145566    -1.41100
C1605       C  0.82972617  0.85631945  0.91978801     1.10400
C1606       C  0.75527869  0.70789589  0.51946671     1.10500
C1607       C  0.70112292  0.72042093  0.89913635     1.10500
C1608       C  0.83365726  0.79134246  0.52454243     1.10400
C1609       C  0.61756544  0.77689545  0.51346333    -0.15500
C1610       C  0.63033340  0.77282997  0.47115256    -0.30600
H1611       H  0.63387069  0.77964928  0.54544782     0.13600
H1612       H  0.61387314  0.76639809  0.93931800     0.14100
C1613       C  0.86987935  0.79126274  0.52172623    -0.15500
C1614       C  0.87683040  0.77050240  0.97248569    -0.30600
H1615       H  0.88508367  0.79316863  0.55444724     0.13600
H1616       H  0.86076797  0.76652222  0.93993620     0.14100
C1617       C  0.77287505  0.92839013  0.01460442    -0.15500
C1618       C  0.75089052  0.89680087  0.99141642    -0.30600
H1619       H  0.78395927  0.92838240  0.53142165     0.13600
H1620       H  0.72786037  0.89461627  0.96937416     0.14100
C1621       C  0.74568448  0.64660686  0.49396455    -0.15500
C1622       C  0.76339287  0.67689588  0.52134921    -0.30600
H1623       H  0.76338226  0.66201657  0.07257066     0.13600
H1624       H  0.77851731  0.67562505  0.55271163     0.14100
C1625       C  0.62834470  0.92362395  0.02582285    -0.15500
C1626       C  0.61208849  0.88822013  0.48921323    -0.30600
H1627       H  0.62127251  0.91740319  0.06323712     0.13600
H1628       H  0.62123389  0.89227238  0.45237239     0.14100
C1629       C  0.88118580  0.66118845  0.98280938    -0.15500
C1630       C  0.85689052  0.64702891  0.48248595    -0.30600
H1631       H  0.88381308  0.65522259  0.54892886     0.13600
H1632       H  0.85941160  0.65484531  0.44508162     0.14100
C1633       C  0.84823313  0.54257840  0.62189526    -0.12300
C1634       C  0.86567444  0.53954797  0.65553852    -0.13900
C1635       C  0.84608711  0.54370130  0.82935027    -0.12300
C1636       C  0.83051267  0.54378471  0.86624096    -0.13900
C1637       C  0.85129884  0.89044817  0.67053806    -0.12300
C1638       C  0.83219451  0.87244190  0.63660590    -0.13900
C1639       C  0.86854682  0.89702357  0.84603872    -0.12300
C1640       C  0.85274128  0.87826645  0.88063504    -0.13900
C1641       C  0.51086760  0.89878190  0.64764280    -0.12300
C1642       C  0.50820353  0.87811277  0.61540101    -0.13900
C1643       C  0.98011669  0.84128944  0.83869215    -0.12300
C1644       C  0.97760575  0.85524489  0.80185287    -0.13900
C1645       C  0.66921027  0.54012496  0.64864368    -0.12300
C1646       C  0.65083114  0.53805678  0.68359475    -0.13900
C1647       C  0.63658453  0.53864171  0.85969292    -0.12300
C1648       C  0.65444649  0.53953236  0.89506703    -0.13900
C1649       C  0.63373879  0.67882429  0.64683567    -0.12300
C1650       C  0.65274978  0.69586260  0.61316623    -0.13900
C1651       C  0.68995760  0.70344273  0.85270399    -0.12300
C1652       C  0.67702585  0.69057922  0.81393040    -0.13900
C1653       C  0.50317048  0.69629133  0.64972670    -0.12300
C1654       C  0.50100574  0.67501003  0.68165043    -0.13900
C1655       C  0.01428323  0.68111815  0.84093710    -0.12300
C1656       C  0.01144503  0.69581422  0.87535387    -0.13900
loop_ 
_geom_bond_atom_site_label_1 
_geom_bond_atom_site_label_2 
_geom_bond_distance 
_geom_bond_site_symmetry_2 
_ccdc_geom_bond_type 
C1            C7   1.505       .  S
C1            C5   1.519       .  S
C1          C830   1.481       .  S
C1          C206   1.452       .  S
C2          C829   1.493       .  S
C2            H9   1.084       .  S
C2            C3   1.374       .  D
C3          C832   1.592       .  S
C3           C20   1.525       .  S
C4            C8   1.581       .  S
C4          C831   1.601       .  S
C4          C834   1.578       .  S
C4           H10   1.110       .  S
C5           H11   1.087       .  S
C5          C834   1.362       .  D
C6          C832   1.576       .  S
C6          C833   1.358       .  D
C6          C205   1.459       .  S
C7           H12   1.085       .  S
C7            C8   1.371       .  D
C8           C63   1.536       .  S
C13          C14   1.516       .  S
C13          C19   1.535       .  S
C13          C17   1.517       .  S
C13         C203   1.486       .  S
C14          H21   1.089       .  S
C14          C15   1.383       .  D
C15          C16   1.586       .  S
C15          C32   1.534       .  S
C16          C20   1.543       .  S
C16          C18   1.570       .  S
C16          H22   1.110       .  S
C17          H23   1.087       .  S
C17          C18   1.368       .  D
C18         C200   1.446       .  S
C19          H24   1.086       .  S
C19          C20   1.376       .  D
C25          C26   1.494   1_545  S
C25          C31   1.492       .  S
C25          C29   1.548       .  S
C25         C198   1.476       .  S
C26         H447   1.087       .  S
C26          C27   1.387       .  D
C27          C28   1.588   1_565  S
C27         C458   1.538       .  S
C28          C32   1.591       .  S
C28          C30   1.533       .  S
C28          H34   1.110       .  S
C29          H35   1.087       .  S
C29          C30   1.359       .  D
C30         C197   1.462       .  S
C31          H36   1.088       .  S
C31          C32   1.379       .  D
H33         C440   1.087       .  S
C37          C43   1.498       .  S
C37          C41   1.519   1_455  S
C37         C866   1.534   1_455  S
C37        C1023   1.470       .  S
C38         C865   1.528       .  S
C38          H45   1.085       .  S
C38          C39   1.381       .  D
C39         C868   1.553       .  S
C39          C56   1.543       .  S
C40          C44   1.599       .  S
C40         C867   1.560   1_455  S
C40         C870   1.573   1_455  S
C40          H46   1.110   1_455  S
C41          H47   1.087       .  S
C41         C870   1.370       .  D
C42         C868   1.575       .  S
C42         C869   1.368       .  D
C42        C1020   1.451       .  S
C43          H48   1.089       .  S
C43          C44   1.370       .  D
C44         C441   1.529       .  S
C49          C50   1.507       .  S
C49          C55   1.483       .  S
C49          C53   1.515       .  S
C49         C190   1.458       .  S
C50          H57   1.082       .  S
C50          C51   1.373       .  D
C51          C52   1.587       .  S
C51         C482   1.544       .  S
C52          C56   1.607       .  S
C52          C54   1.583       .  S
C52          H58   1.110       .  S
C53          H59   1.087       .  S
C53          C54   1.363       .  D
C54         C188   1.467       .  S
C55          H60   1.083       .  S
C55          C56   1.369       .  D
C61          C62   1.502       .  S
C61          C67   1.511   1_545  S
C61          C65   1.507       .  S
C61         C186   1.494       .  S
C62          H69   1.083       .  S
C62          C63   1.380       .  D
C63          C64   1.576       .  S
C64          C68   1.576   1_545  S
C64          C66   1.584       .  S
C64          H70   1.110       .  S
C65          H71   1.087       .  S
C65          C66   1.368       .  D
C66         C185   1.455       .  S
C67         H486   1.082       .  S
C67          C68   1.387       .  D
C68         C465   1.544       .  S
H72         C481   1.080       .  S
O73          C81   1.303       .  A
O73        Co507   2.094   1_545  S
O74          C82   1.267   1_554  A
O74         Co94   2.003       .  S
O75          C83   1.258   1_556  A
O75         Co95   1.989   1_556  S
O76          C84   1.271       .  A
O76        Co303   1.916       .  S
O77          C83   1.269       .  A
O77         Co94   2.014       .  S
O78          C84   1.297       .  A
O78        Co507   2.086   1_545  S
O79          C82   1.255       .  A
O79         Co96   1.975       .  S
O80          C81   1.269       .  A
O80        Co302   1.894       .  S
C81         C199   1.443       .  S
C82         C181   1.465       .  S
C83         C172   1.481       .  S
C84         C187   1.458       .  S
O85          C98   1.256       .  A
O85         Co93   2.012       .  S
O86          C99   1.273       .  A
O86         Co94   2.007       .  S
O87         C307   1.242       .  A
O87        Co509   1.956       .  S
O88         C101   1.276       .  A
O88         Co96   2.031   1_554  S
O89         C101   1.274       .  A
O89         Co94   1.998       .  S
O90         C100   1.249       .  A
O90         Co93   1.977       .  S
O91          C98   1.235       .  A
O91        Co717   1.946       .  S
O92          C99   1.270       .  A
O92         Co95   2.013       .  S
Co93        O487   2.093       .  S
Co93        O492   2.081       .  S
Co93        O718   2.256       .  S
Co94         O97   2.089       .  S
Co95        O287   1.912   1_554  S
Co95        O501   1.967   1_545  S
Co95         O97   1.927       .  S
Co96        O283   1.927       .  S
Co96        O712   1.951   1_546  S
Co96         O97   1.938   1_556  S
O97        Co714   2.255   1_544  S
C98         C168   1.467       .  S
C99         C196   1.456       .  S
C100        O294   1.246       .  A
C100        C176   1.475       .  S
C101        C184   1.456       .  S
O102        C110   1.255       .  A
O102       Co122   1.993       .  S
O103        C111   1.273   1_655  A
O103       Co123   2.000   1_655  S
O104        C112   1.270       .  A
O104       Co124   2.014   1_554  S
O105        C320   1.242   1_554  A
O105       Co125   1.971   1_554  S
O106        C112   1.278       .  A
O106       Co123   2.016       .  S
O107        C113   1.247       .  A
O107       Co122   1.990       .  S
O108        C939   1.272       .  A
O108       Co125   2.017   1_554  S
O109        C317   1.245   1_554  A
O109       Co952   1.956       .  S
C110        O316   1.245       .  A
C110        C180   1.460       .  S
C111        O936   1.271       .  A
C111        C193   1.450   1_455  S
C112        C204   1.459       .  S
C113        O312   1.246       .  A
C113        C165   1.473       .  S
O114        C127   1.292       .  A
O114       Co122   2.066       .  S
O115        C128   1.267       .  A
O115       Co123   2.019       .  S
O116        C957   1.250       .  A
O116       Co331   1.954   1_655  S
O117        C130   1.256   1_556  A
O117       Co953   1.970       .  S
O118        C130   1.269       .  A
O118       Co123   2.009       .  S
O119        C129   1.285       .  A
O119       Co122   2.043       .  S
O120        C127   1.275       .  A
O120       Co332   1.923       .  S
O121        C128   1.263   1_556  A
O121       Co124   1.996       .  S
Co122      O1161   2.263       .  S
Co123       O126   2.088   1_455  S
Co124       O937   1.943   1_456  S
Co124       O323   1.898       .  S
Co124       O126   1.939   1_456  S
Co125       O945   1.978       .  S
Co125       O327   1.920       .  S
Co125       O954   1.916   1_556  S
O126      Co1157   2.256   1_554  S
O126       Co953   1.923   1_654  S
C127        C194   1.448       .  S
C128        C160   1.486       .  S
C129        O944   1.267       .  A
C129        C207   1.416       .  S
C130        C177   1.459   1_554  S
O131        C139   1.248       .  A
O131       Co151   1.998       .  S
O132        C140   1.309       .  A
O132       Co152   2.113       .  S
O133        C141   1.273       .  A
O133       Co153   1.882       .  S
O134        C349   1.267   1_554  A
O134       Co154   1.992       .  S
O135        C141   1.311       .  A
O135       Co152   2.104       .  S
O136        C142   1.250       .  A
O136       Co151   1.983       .  S
O137        C140   1.268       .  A
O137       Co154   1.904       .  S
O138        C346   1.261   1_554  A
O138       Co153   2.003       .  S
C139        O345   1.245       .  A
C139        C368   1.469       .  S
C140        C189   1.465       .  S
C141        C201   1.441       .  S
C142        O341   1.251       .  A
C142        C169   1.468       .  S
O143        C156   1.284       .  A
O143       Co151   2.033       .  S
O144        C157   1.251       .  A
O144       Co152   1.985       .  S
O145        C158   1.277       .  A
O145       Co360   1.942       .  S
O146        C159   1.246   1_556  A
O146       Co154   1.971   1_556  S
O147        C159   1.257       .  A
O147       Co152   2.015       .  S
O148        C158   1.286       .  A
O148       Co151   2.043       .  S
O149        C156   1.270       .  A
O149       Co361   1.908       .  S
O150        C157   1.249   1_556  A
O150       Co153   1.984   1_556  S
Co151       O362   2.273       .  S
Co152       O155   2.254   1_554  S
Co153       O352   2.041   1_554  S
Co153       O155   1.913   1_554  S
Co154       O356   1.993   1_554  S
Co154       O155   1.931   1_554  S
O155       Co358   2.069       .  S
C156        C191   1.422       .  S
C157        C173   1.474       .  S
C158        C202   1.452       .  S
C159        C164   1.479       .  S
C160        H162   1.087       .  S
C160        C161   1.345   1_554  D
C161        H370   1.087       .  S
C161        C346   1.488       .  S
H163        C368   1.087       .  S
C164        H166   1.087       .  S
C164        C372   1.346   1_554  D
C165        H167   1.087       .  S
C165        C371   1.340       .  D
C168        H377   1.087       .  S
C168        C169   1.334       .  D
C169        H171   1.087       .  S
H170        C375   1.087       .  S
C172        H381   1.086   1_554  S
C172        C173   1.343       .  D
C173        H175   1.087       .  S
H174        C379   1.087       .  S
C176        H178   1.087       .  S
C176        C384   1.344       .  D
C177        H179   1.087       .  S
C177        C383   1.339   1_556  D
C180        H389   1.087       .  S
C180        C388   1.343       .  D
C181        H183   1.086       .  S
C181        C387   1.342   1_556  D
H182        C387   1.088       .  S
C184        C185   1.218       .  T
C186        C187   1.220       .  T
C188        C189   1.224       .  T
C190        C191   1.199       .  T
C192        C870   1.452       .  S
C192        C193   1.214       .  T
C194        C195   1.214       .  T
C195        C865   1.482       .  S
C196        C197   1.218       .  T
C198        C199   1.211       .  T
C200        C201   1.210       .  T
C202        C203   1.217       .  T
C204        C205   1.220       .  T
C206        C207   1.196       .  T
C208       C1037   1.487       .  S
C208        C214   1.481       .  S
C208        C212   1.544       .  S
C208        C413   1.469       .  S
C209       C1036   1.487       .  S
C209        H216   1.083       .  S
C209        C210   1.372       .  D
C210       C1039   1.586       .  S
C210        C227   1.526       .  S
C211       C1038   1.596       .  S
C211        C215   1.601       .  S
C211       C1041   1.549       .  S
C211        H217   1.110       .  S
C212        H218   1.087       .  S
C212       C1041   1.364       .  D
C213       C1039   1.578       .  S
C213       C1040   1.357       .  D
C213        C412   1.441       .  S
C214        H219   1.086       .  S
C214        C215   1.375       .  D
C215        C270   1.534       .  S
C220        C221   1.512       .  S
C220        C226   1.528       .  S
C220        C224   1.514       .  S
C220        C410   1.478       .  S
C221        H228   1.088       .  S
C221        C222   1.384       .  D
C222        C223   1.592       .  S
C222        C239   1.543       .  S
C223        C227   1.548       .  S
C223        C225   1.578       .  S
C223        H229   1.110       .  S
C224        H230   1.087       .  S
C224        C225   1.365       .  D
C225        C407   1.454       .  S
C226        H231   1.086       .  S
C226        C227   1.375       .  D
C232        C233   1.482   1_545  S
C232        C238   1.505       .  S
C232        C236   1.541       .  S
C232        C405   1.471       .  S
C233        H654   1.072       .  S
C233        C234   1.376       .  D
C234        C235   1.599   1_565  S
C234        C665   1.527       .  S
C235        C239   1.578       .  S
C235        C237   1.549       .  S
C235        H241   1.110       .  S
C236        H242   1.087       .  S
C236        C237   1.365       .  D
C237        C404   1.466       .  S
C238        H243   1.088       .  S
C238        C239   1.380       .  D
H240        C647   1.088       .  S
C244       C1073   1.533   1_455  S
C244        C250   1.505       .  S
C244        C248   1.519   1_455  S
C244       C1230   1.484       .  S
C245       C1072   1.525       .  S
C245        H252   1.083       .  S
C245        C246   1.385       .  D
C246       C1075   1.556       .  S
C246        C263   1.548       .  S
C247       C1074   1.560       .  S
C247        C251   1.591   1_655  S
C247       C1077   1.575       .  S
C247        H253   1.110       .  S
C248        H254   1.087       .  S
C248       C1077   1.371       .  D
C249       C1075   1.573       .  S
C249       C1076   1.367       .  D
C249       C1227   1.446       .  S
C250        H255   1.089       .  S
C250        C251   1.375       .  D
C251        C648   1.526       .  S
C256        C257   1.501       .  S
C256        C262   1.479       .  S
C256        C260   1.512       .  S
C256        C397   1.442       .  S
C257        H264   1.082       .  S
C257        C258   1.367       .  D
C258        C259   1.590       .  S
C258        C689   1.538       .  S
C259        C263   1.615       .  S
C259        C261   1.591       .  S
C259        H265   1.109       .  S
C260        H266   1.088       .  S
C260        C261   1.359       .  D
C261        C395   1.473       .  S
C262        H267   1.081       .  S
C262        C263   1.368       .  D
C268        C269   1.496       .  S
C268        C274   1.506       .  S
C268        C272   1.507       .  S
C268        C393   1.489       .  S
C269        H276   1.085       .  S
C269        C270   1.378       .  D
C270        C271   1.576       .  S
C271        C275   1.574   1_545  S
C271        C273   1.582       .  S
C271        H277   1.110       .  S
C272        H278   1.087       .  S
C272        C273   1.372       .  D
C273        C392   1.445       .  S
C274        H693   1.081   1_545  S
C274        C275   1.382   1_545  D
C275        C672   1.541       .  S
H279        C688   1.080       .  S
O280        C288   1.290       .  A
O280       Co714   2.055   1_545  S
O281        C289   1.268       .  A
O281       Co301   1.999       .  S
O282        C290   1.260       .  A
O282       Co302   1.988       .  S
O283        C291   1.275       .  A
O284        C290   1.269       .  A
O284       Co301   2.008       .  S
O285        C291   1.290       .  A
O285       Co714   2.070   1_545  S
O286        C289   1.258       .  A
O286       Co303   1.974       .  S
O287        C288   1.271       .  A
C288        C406   1.433       .  S
C289        C388   1.464       .  S
C290        C379   1.480       .  S
C291        C394   1.456       .  S
O292        C305   1.256       .  A
O292       Co300   2.008       .  S
O293        C306   1.272       .  A
O293       Co301   2.005       .  S
O294       Co716   1.976       .  S
O295        C308   1.271       .  A
O295       Co303   2.016       .  S
O296        C308   1.273       .  A
O296       Co301   1.995       .  S
O297        C307   1.254   1_556  A
O297       Co300   1.986       .  S
O298        C305   1.243   1_554  A
O298       Co510   1.969   1_554  S
O299        C306   1.272       .  A
O299       Co302   2.024       .  S
Co300       O694   2.087       .  S
Co300       O699   2.092       .  S
Co300       O511   2.261   1_556  S
Co301       O304   2.080       .  S
Co302       O708   1.960   1_545  S
Co302       O304   1.926       .  S
Co303       O505   1.951   1_545  S
Co303       O304   1.925       .  S
O304       Co507   2.257   1_545  S
C305        C375   1.483   1_556  S
C306        C403   1.461       .  S
C307        C383   1.463       .  S
C308        C391   1.446       .  S
O309        C317   1.252       .  A
O309       Co329   1.986       .  S
O310        C318   1.272   1_655  A
O310       Co330   2.002   1_655  S
O311        C319   1.256       .  A
O311       Co331   1.947       .  S
O312       Co332   1.983       .  S
O313        C319   1.287       .  A
O313       Co330   2.046       .  S
O314        C320   1.253       .  A
O314       Co329   2.016       .  S
O315       C1146   1.272       .  A
O315       Co332   2.009       .  S
O316      Co1159   1.949       .  S
C317        C387   1.463   1_556  S
C318       O1143   1.273       .  A
C318        C400   1.456   1_455  S
C319        C411   1.440       .  S
C320        C372   1.480       .  S
O321        C334   1.295       .  A
O321       Co329   2.073       .  S
O322        C335   1.264       .  A
O322       Co330   2.009       .  S
O323       C1164   1.269       .  A
O324        C337   1.256       .  A
O324      Co1160   1.961       .  S
O325        C337   1.273       .  A
O325       Co330   2.032       .  S
O326        C336   1.294       .  A
O326       Co329   2.075       .  S
O327        C334   1.273       .  A
O328        C335   1.255       .  A
O328       Co331   1.965       .  S
Co329       O954   2.263   1_556  S
Co330       O333   2.124   1_455  S
Co331      O1144   1.962   1_455  S
Co331       O333   1.972   1_455  S
Co332      O1152   1.990       .  S
Co332      O1161   1.920       .  S
O333       Co950   2.195       .  S
O333      Co1160   1.940   1_655  S
C334        C401   1.450       .  S
C335        C367   1.468       .  S
C336       O1151   1.267       .  A
C336        C414   1.432       .  S
C337        C384   1.469       .  S
O338        C346   1.264       .  A
O338       Co358   2.017       .  S
O339        C347   1.280       .  A
O339       Co359   2.025       .  S
O340        C348   1.272       .  A
O340       Co360   2.006       .  S
O341       Co361   1.966       .  S
O342        C348   1.279       .  A
O342       Co359   2.013       .  S
O343        C349   1.268       .  A
O343       Co358   2.008       .  S
O344        C347   1.270       .  A
O344       Co361   2.019       .  S
O345       Co360   1.969       .  S
C347        C396   1.474       .  S
C348        C408   1.453       .  S
C349        C376   1.477       .  S
O350        C363   1.248       .  A
O350       Co358   1.946       .  S
O351        C364   1.266       .  A
O351       Co359   2.002       .  S
O352        C365   1.276       .  A
O353        C366   1.260       .  A
O353       Co361   1.987       .  S
O354        C366   1.266       .  A
O354       Co359   2.017       .  S
O355        C365   1.253       .  A
O355       Co358   1.959       .  S
O356        C363   1.262       .  A
O357        C364   1.261       .  A
O357       Co360   1.989       .  S
Co359       O362   2.098       .  S
Co360       O362   1.933       .  S
Co361       O362   1.928       .  S
C363        C398   1.405       .  S
C364        C380   1.473       .  S
C365        C409   1.443       .  S
C366        C371   1.477       .  S
C367        H369   1.088       .  S
C367        C368   1.339       .  D
C371        H373   1.087       .  S
C372        H374   1.087       .  S
C375        C376   1.343   1_554  D
C376        H378   1.087       .  S
C379        C380   1.345       .  D
C380        H382   1.087       .  S
C383        H385   1.087       .  S
C384        H386   1.087       .  S
C388        H390   1.087       .  S
C391        C392   1.211       .  T
C393        C394   1.218       .  T
C395        C396   1.229       .  T
C397        C398   1.189       .  T
C399       C1077   1.458       .  S
C399        C400   1.218       .  T
C401        C402   1.215       .  T
C402       C1072   1.484       .  S
C403        C404   1.221       .  T
C405        C406   1.205       .  T
C407        C408   1.216       .  T
C409        C410   1.212       .  T
C411        C412   1.210       .  T
C413        C414   1.205       .  T
C415       C1244   1.480       .  S
C415        C421   1.505       .  S
C415        C419   1.519       .  S
C415        C620   1.452       .  S
C416       C1243   1.483       .  S
C416        H423   1.084       .  S
C416        C417   1.371       .  D
C417       C1246   1.603       .  S
C417        C434   1.531       .  S
C418       C1245   1.609       .  S
C418        C422   1.587       .  S
C418       C1248   1.578       .  S
C418        H424   1.110       .  S
C419        H425   1.087       .  S
C419       C1248   1.359       .  D
C420       C1246   1.580   1_655  S
C420       C1247   1.360       .  D
C420        C619   1.466       .  S
C421        H426   1.086       .  S
C421        C422   1.373       .  D
C422        C477   1.542       .  S
C427        C428   1.509       .  S
C427        C433   1.534       .  S
C427        C431   1.512       .  S
C427        C617   1.477       .  S
C428        H435   1.089       .  S
C428        C429   1.378       .  D
C429        C430   1.589       .  S
C429        C446   1.530       .  S
C430        C434   1.541       .  S
C430        C432   1.568       .  S
C430        H436   1.110       .  S
C431        H437   1.087       .  S
C431        C432   1.368       .  D
C432        C614   1.438       .  S
C433        H438   1.086       .  S
C433        C434   1.379       .  D
C439        C440   1.491       .  S
C439        C445   1.504       .  S
C439        C443   1.548       .  S
C439        C612   1.491       .  S
C440        C441   1.388       .  D
C441        C442   1.578       .  S
C442        C446   1.577       .  S
C442        C444   1.538       .  S
C442        H448   1.110       .  S
C443        H449   1.087       .  S
C443        C444   1.365       .  D
C444        C611   1.464       .  S
C445        H450   1.088       .  S
C445        C446   1.386       .  D
C451       C1280   1.531   1_455  S
C451        C457   1.515       .  S
C451        C455   1.506   1_455  S
C451       C1437   1.478       .  S
C452       C1279   1.534       .  S
C452        H459   1.086       .  S
C452        C453   1.383       .  D
C453       C1282   1.547       .  S
C453        C470   1.542       .  S
C454       C1281   1.548       .  S
C454        C458   1.597   1_655  S
C454       C1284   1.583       .  S
C454        H460   1.110       .  S
C455        H461   1.088       .  S
C455       C1284   1.364       .  D
C456       C1282   1.571       .  S
C456       C1283   1.368       .  D
C456       C1434   1.445       .  S
C457        H462   1.089       .  S
C457        C458   1.380       .  D
C463        C464   1.504       .  S
C463        C469   1.480       .  S
C463        C467   1.513       .  S
C463        C604   1.445       .  S
C464        H471   1.084       .  S
C464        C465   1.370       .  D
C465        C466   1.591       .  S
C466        C470   1.611       .  S
C466        C468   1.586       .  S
C466        H472   1.110       .  S
C467        H473   1.088       .  S
C467        C468   1.361       .  D
C468        C602   1.469       .  S
C469        H474   1.084       .  S
C469        C470   1.367       .  D
C475        C476   1.500       .  S
C475        C481   1.511       .  S
C475        C479   1.507       .  S
C475        C600   1.490       .  S
C476        H483   1.084       .  S
C476        C477   1.381       .  D
C477        C478   1.581       .  S
C478        C482   1.577       .  S
C478        C480   1.586       .  S
C478        H484   1.110       .  S
C479        H485   1.087       .  S
C479        C480   1.367       .  D
C480        C599   1.457       .  S
C481        C482   1.384       .  D
O487        C495   1.300       .  A
O488        C496   1.263       .  A
O488       Co508   1.992       .  S
O489        C497   1.258   1_556  A
O489       Co509   1.985   1_556  S
O490        C498   1.271       .  A
O490       Co717   1.917       .  S
O491        C497   1.274       .  A
O491       Co508   2.030       .  S
O492        C498   1.296       .  A
O493        C496   1.260   1_556  A
O493       Co510   1.983       .  S
O494        C495   1.274       .  A
O494       Co716   1.908       .  S
C495        C613   1.456       .  S
C496        C595   1.469   1_554  S
C497        C586   1.489   1_554  S
C498        C601   1.455       .  S
O499        C512   1.259       .  A
O499       Co507   2.018       .  S
O500        C513   1.269       .  A
O500       Co508   2.004       .  S
O501        C721   1.243       .  A
O502        C515   1.276       .  A
O502       Co510   2.029   1_554  S
O503        C515   1.275       .  A
O503       Co508   2.000       .  S
O504        C514   1.249       .  A
O504       Co507   1.970       .  S
O505        C512   1.235       .  A
O506        C513   1.270       .  A
O506       Co509   2.021       .  S
Co508       O511   2.089       .  S
Co509       O701   1.906   1_554  S
Co509       O511   1.931       .  S
Co510       O697   1.923       .  S
Co510       O511   1.932   1_556  S
C512        C582   1.476       .  S
C513        C610   1.459       .  S
C514        O708   1.244       .  A
C514        C590   1.459       .  S
C515        C598   1.458       .  S
O516        C524   1.270       .  A
O516       Co536   2.020       .  S
O517        C525   1.285       .  A
O517       Co537   2.051   1_655  S
O518        C526   1.267       .  A
O518       Co538   1.889       .  S
O519        C734   1.262   1_554  A
O519       Co539   2.002   1_554  S
O520        C526   1.311       .  A
O520       Co537   2.130   1_655  S
O521        C527   1.250       .  A
O521       Co536   1.986       .  S
O522       C1353   1.273       .  A
O522       Co539   1.886   1_554  S
O523        C731   1.263       .  A
O523      Co1366   1.984       .  S
C524        O730   1.253       .  A
C524        C594   1.467       .  S
C525       O1350   1.254       .  A
C525        C607   1.448       .  S
C526        C618   1.463       .  S
C527        O726   1.254       .  A
C527        C579   1.479       .  S
O528        C541   1.291       .  A
O528       Co536   2.077       .  S
O529        C542   1.254       .  A
O529       Co537   2.012       .  S
O530       C1371   1.249       .  A
O530       Co745   1.956   1_655  S
O531        C544   1.258       .  A
O531      Co1367   1.954   1_455  S
O532        C544   1.271   1_554  A
O532       Co537   2.020       .  S
O533        C543   1.260       .  A
O533       Co536   1.988       .  S
O534        C541   1.272       .  A
O534       Co746   1.923       .  S
O535        C542   1.245   1_556  A
O535       Co538   1.990   1_456  S
Co536      O1575   2.210       .  S
Co537       O540   2.209   1_454  S
Co538      O1351   1.995       .  S
Co538       O737   1.994   1_554  S
Co538       O540   1.935   1_554  S
Co539      O1359   1.961       .  S
Co539       O741   2.039       .  S
Co539      O1368   1.916       .  S
O540      Co1571   2.110       .  S
O540      Co1367   1.975       .  S
C541        C608   1.456       .  S
C542        C574   1.490       .  S
C543       O1358   1.249       .  A
C543        C621   1.416       .  S
C544        C591   1.471       .  S
O545        C553   1.252       .  A
O545       Co565   2.009       .  S
O546        C554   1.276       .  A
O546       Co566   2.023       .  S
O547        C555   1.272       .  A
O547       Co567   1.998   1_554  S
O548        C763   1.252   1_554  A
O548       Co568   1.975   1_554  S
O549        C555   1.276       .  A
O549       Co566   1.999       .  S
O550        C556   1.246       .  A
O550       Co565   1.966       .  S
O551        C554   1.266       .  A
O551       Co568   2.012   1_554  S
O552        C760   1.241       .  A
O552       Co567   1.981       .  S
C553        O759   1.244       .  A
C553        C782   1.473       .  S
C554        C603   1.468       .  S
C555        C615   1.437       .  S
C556        O755   1.255       .  A
C556        C583   1.472       .  S
O557        C570   1.284       .  A
O557       Co565   2.023       .  S
O558        C571   1.266       .  A
O558       Co566   1.998       .  S
O559        C572   1.273       .  A
O559       Co774   1.934       .  S
O560        C573   1.266   1_556  A
O560       Co568   1.996       .  S
O561        C573   1.269       .  A
O561       Co566   2.021       .  S
O562        C572   1.285       .  A
O562       Co565   2.045       .  S
O563        C570   1.273       .  A
O563       Co775   1.898       .  S
O564        C571   1.268   1_556  A
O564       Co567   2.004       .  S
Co565       O776   2.267       .  S
Co566       O569   2.084       .  S
Co567       O766   1.939       .  S
Co567       O569   1.938   1_556  S
Co568       O770   1.881       .  S
Co568       O569   1.928   1_556  S
O569       Co772   2.261   1_554  S
C570        C605   1.408       .  S
C571        C587   1.481       .  S
C572        C616   1.443       .  S
C573        C578   1.486       .  S
C574        H576   1.087       .  S
C574        C575   1.353   1_554  D
C575        H784   1.086       .  S
C575        C760   1.492       .  S
H577        C782   1.087       .  S
C578        H580   1.087       .  S
C578        C786   1.343   1_554  D
C579        H581   1.087       .  S
C579        C785   1.337       .  D
C582        H791   1.087       .  S
C582        C583   1.333       .  D
C583        H585   1.088       .  S
H584        C789   1.087   1_554  S
C586        H795   1.086       .  S
C586        C587   1.343   1_556  D
C587        H589   1.087       .  S
H588        C793   1.088       .  S
C590        H592   1.087       .  S
C590        C798   1.343       .  D
C591        H593   1.087       .  S
C591        C797   1.343   1_556  D
C594        H803   1.087       .  S
C594        C802   1.340       .  D
C595        H597   1.086       .  S
C595        C801   1.348   1_556  D
H596        C801   1.087       .  S
C598        C599   1.219       .  T
C600        C601   1.218       .  T
C602        C603   1.225       .  T
C604        C605   1.191       .  T
C606       C1284   1.449       .  S
C606        C607   1.214       .  T
C608        C609   1.219       .  T
C609       C1279   1.490       .  S
C610        C611   1.220       .  T
C612        C613   1.219       .  T
C614        C615   1.206       .  T
C616        C617   1.211       .  T
C618        C619   1.223       .  T
C620        C621   1.195       .  T
C622       C1451   1.472       .  S
C622        C628   1.498       .  S
C622        C626   1.527       .  S
C622        C827   1.440       .  S
C623       C1450   1.473       .  S
C623        H630   1.085       .  S
C623        C624   1.367       .  D
C624       C1453   1.614       .  S
C624        C641   1.534       .  S
C625       C1452   1.610       .  S
C625        C629   1.592       .  S
C625       C1455   1.563       .  S
C625        H631   1.110       .  S
C626        H632   1.088       .  S
C626       C1455   1.357       .  D
C627       C1453   1.580       .  S
C627       C1454   1.356       .  D
C627        C826   1.457   1_455  S
C628        H633   1.088       .  S
C628        C629   1.370       .  D
C629        C684   1.539       .  S
C634        C635   1.511       .  S
C634        C640   1.536       .  S
C634        C638   1.521       .  S
C634        C824   1.492       .  S
C635        H642   1.089       .  S
C635        C636   1.379       .  D
C636        C637   1.587       .  S
C636        C653   1.523       .  S
C637        C641   1.536       .  S
C637        C639   1.557       .  S
C637        H643   1.110       .  S
C638        H644   1.087       .  S
C638        C639   1.372       .  D
C639        C821   1.436       .  S
C640        H645   1.086       .  S
C640        C641   1.383       .  D
C646        C647   1.495       .  S
C646        C652   1.494       .  S
C646        C650   1.545       .  S
C646        C819   1.480       .  S
C647        C648   1.386       .  D
C648        C649   1.577       .  S
C649        C653   1.575       .  S
C649        C651   1.535       .  S
C649        H655   1.110       .  S
C650        H656   1.087       .  S
C650        C651   1.361       .  D
C651        C818   1.456       .  S
C652        H657   1.088       .  S
C652        C653   1.384       .  D
C658       C1487   1.511       .  S
C658        C664   1.515   1_655  S
C658        C662   1.493       .  S
C658       C1644   1.468       .  S
C659       C1486   1.514       .  S
C659        H666   1.088       .  S
C659        C660   1.389       .  D
C660       C1489   1.590       .  S
C660        C677   1.554       .  S
C661       C1488   1.581       .  S
C661        C665   1.554   1_655  S
C661       C1491   1.579   1_655  S
C661        H667   1.109   1_655  S
C662        H668   1.088       .  S
C662       C1491   1.362   1_655  D
C663       C1489   1.588       .  S
C663       C1490   1.365       .  D
C663       C1641   1.458       .  S
C664        H669   1.072       .  S
C664        C665   1.376       .  D
C670        C671   1.481       .  S
C670        C676   1.499       .  S
C670        C674   1.537       .  S
C670        C811   1.463       .  S
C671        H678   1.081       .  S
C671        C672   1.378       .  D
C672        C673   1.612       .  S
C673        C677   1.604       .  S
C673        C675   1.557       .  S
C673        H679   1.110       .  S
C674        H680   1.087       .  S
C674        C675   1.359       .  D
C675        C809   1.473       .  S
C676        H681   1.089       .  S
C676        C677   1.374       .  D
C682        C683   1.504       .  S
C682        C688   1.515       .  S
C682        C686   1.509       .  S
C682        C807   1.500       .  S
C683        H690   1.086       .  S
C683        C684   1.385       .  D
C684        C685   1.572       .  S
C685        C689   1.562       .  S
C685        C687   1.583       .  S
C685        H691   1.110       .  S
C686        H692   1.087       .  S
C686        C687   1.371       .  D
C687        C806   1.452       .  S
C688        C689   1.386       .  D
O694        C702   1.300       .  A
O695        C703   1.274       .  A
O695       Co715   2.023       .  S
O696        C704   1.271       .  A
O696       Co716   2.011       .  S
O697        C705   1.276       .  A
O698        C704   1.261       .  A
O698       Co715   1.987       .  S
O699        C705   1.299       .  A
O700        C703   1.257       .  A
O700       Co717   1.965       .  S
O701        C702   1.269       .  A
C702        C820   1.446       .  S
C703        C802   1.469       .  S
C704        C793   1.483       .  S
C705        C808   1.466       .  S
O706        C719   1.255       .  A
O706       Co714   1.994       .  S
O707        C720   1.276       .  A
O707       Co715   2.002       .  S
O709        C722   1.272       .  A
O709       Co717   2.028       .  S
O710        C722   1.269       .  A
O710       Co715   1.993       .  S
O711        C721   1.254   1_556  A
O711       Co714   1.998       .  S
O712        C719   1.238   1_554  A
O713        C720   1.275       .  A
O713       Co716   2.015       .  S
Co715       O718   2.078       .  S
Co716       O718   1.944       .  S
Co717       O718   1.928       .  S
C719        C789   1.467       .  S
C720        C817   1.450       .  S
C721        C797   1.471       .  S
C722        C805   1.452       .  S
O723        C731   1.267   1_556  A
O723       Co743   2.001       .  S
O724        C732   1.277   1_655  A
O724       Co744   2.003   1_655  S
O725        C733   1.260       .  A
O725       Co745   1.960       .  S
O726       Co746   1.992       .  S
O727        C733   1.291   1_655  A
O727       Co744   2.056   1_655  S
O728        C734   1.263       .  A
O728       Co743   2.011       .  S
O729       C1560   1.271       .  A
O729       Co746   2.020       .  S
O730      Co1573   1.944       .  S
C731        C801   1.468       .  S
C732       O1557   1.265       .  A
C732        C814   1.441       .  S
C733        C825   1.454   1_455  S
C734        C786   1.485       .  S
O735        C748   1.260       .  A
O735       Co743   1.968       .  S
O736        C749   1.265       .  A
O736       Co744   2.021       .  S
O737       C1578   1.263   1_655  A
O738        C751   1.259       .  A
O738      Co1574   1.972       .  S
O739        C751   1.268       .  A
O739       Co744   1.999       .  S
O740        C750   1.253       .  A
O740       Co743   1.951       .  S
O741        C748   1.276       .  A
O742        C749   1.252       .  A
O742       Co745   1.968       .  S
Co743      O1368   2.081       .  S
Co744       O747   2.127   1_455  S
Co745      O1558   1.944   1_455  S
Co745       O747   1.975   1_455  S
Co746      O1566   1.976       .  S
Co746      O1575   1.937       .  S
O747      Co1364   2.200       .  S
O747      Co1574   1.933   1_655  S
C748        C815   1.447       .  S
C749        C781   1.473       .  S
C750       O1565   1.258       .  A
C750        C828   1.402       .  S
C751        C798   1.457       .  S
O752        C760   1.255       .  A
O752       Co772   2.027       .  S
O753        C761   1.277       .  A
O753       Co773   2.019       .  S
O754        C762   1.268       .  A
O754       Co774   2.002       .  S
O755       Co775   1.993       .  S
O756        C762   1.266       .  A
O756       Co773   1.982       .  S
O757        C763   1.247       .  A
O757       Co772   1.964       .  S
O758        C761   1.271       .  A
O758       Co775   2.017       .  S
O759       Co774   1.969       .  S
C761        C810   1.469       .  S
C762        C822   1.432       .  S
C763        C790   1.461       .  S
O764        C777   1.296       .  A
O764       Co772   2.074       .  S
O765        C778   1.275       .  A
O765       Co773   2.040       .  S
O766        C779   1.278       .  A
O767        C780   1.262       .  A
O767       Co775   2.012       .  S
O768        C780   1.259       .  A
O768       Co773   1.999       .  S
O769        C779   1.290       .  A
O769       Co772   2.055       .  S
O770        C777   1.264       .  A
O771        C778   1.253       .  A
O771       Co774   1.982       .  S
Co773       O776   2.097       .  S
Co774       O776   1.926       .  S
Co775       O776   1.931       .  S
C777        C812   1.426       .  S
C778        C794   1.488       .  S
C779        C823   1.459       .  S
C780        C785   1.481       .  S
C781        H783   1.087       .  S
C781        C782   1.342       .  D
C785        H787   1.087       .  S
C786        H788   1.087       .  S
C789        C790   1.334       .  D
C790        H792   1.088       .  S
C793        C794   1.338       .  D
C794        H796   1.086       .  S
C797        H799   1.086       .  S
C798        H800   1.087       .  S
C802        H804   1.087       .  S
C805        C806   1.215       .  T
C807        C808   1.224       .  T
C809        C810   1.226       .  T
C811        C812   1.201       .  T
C813       C1491   1.436       .  S
C813        C814   1.208       .  T
C815        C816   1.214       .  T
C816       C1486   1.482       .  S
C817        C818   1.215       .  T
C819        C820   1.212       .  T
C821        C822   1.203       .  T
C823        C824   1.220       .  T
C825        C826   1.219       .  T
C827        C828   1.187       .  T
C829        C835   1.506   1_455  S
C829        C833   1.511       .  S
C829       C1034   1.461       .  S
C830        H837   1.084       .  S
C830        C831   1.371       .  D
C831        C848   1.527       .  S
C832        C836   1.579   1_455  S
C832        H838   1.110       .  S
C833        H839   1.088       .  S
C834       C1033   1.467       .  S
C835        H840   1.080       .  S
C835        C836   1.378       .  D
C836        C891   1.539       .  S
C841        C842   1.517       .  S
C841        C847   1.533       .  S
C841        C845   1.515       .  S
C841       C1031   1.487       .  S
C842        H849   1.088       .  S
C842        C843   1.384       .  D
C843        C844   1.593       .  S
C843        C860   1.541       .  S
C844        C848   1.540       .  S
C844        C846   1.575       .  S
C844        H850   1.110       .  S
C845        H851   1.087       .  S
C845        C846   1.367       .  D
C846       C1028   1.449       .  S
C847        H852   1.086       .  S
C847        C848   1.377       .  D
C853        C854   1.485   1_545  S
C853        C859   1.498       .  S
C853        C857   1.545       .  S
C853       C1026   1.471       .  S
C854       H1275   1.088       .  S
C854        C855   1.381       .  D
C855        C856   1.594   1_565  S
C855       C1286   1.535       .  S
C856        C860   1.590       .  S
C856        C858   1.535       .  S
C856        H862   1.110       .  S
C857        H863   1.087       .  S
C857        C858   1.359       .  D
C858       C1025   1.459       .  S
C859        H864   1.087       .  S
C859        C860   1.383       .  D
H861       C1268   1.088       .  S
C865        C871   1.505       .  S
C865        C869   1.513       .  S
C866        H873   1.087       .  S
C866        C867   1.377       .  D
C867        C884   1.547       .  S
C868        C872   1.590       .  S
C868        H874   1.110       .  S
C869        H875   1.087       .  S
C871        H876   1.089       .  S
C871        C872   1.377       .  D
C872       C1269   1.526       .  S
C877        C878   1.509       .  S
C877        C883   1.491       .  S
C877        C881   1.510       .  S
C877       C1018   1.460       .  S
C878        H885   1.079       .  S
C878        C879   1.371       .  D
C879        C880   1.581       .  S
C879       C1310   1.539       .  S
C880        C884   1.603       .  S
C880        C882   1.592       .  S
C880        H886   1.109       .  S
C881        H887   1.088       .  S
C881        C882   1.361       .  D
C882       C1016   1.471       .  S
C883        H888   1.085       .  S
C883        C884   1.376       .  D
C889        C890   1.503       .  S
C889        C895   1.507   1_545  S
C889        C893   1.508       .  S
C889       C1014   1.491       .  S
C890        H897   1.078       .  S
C890        C891   1.378       .  D
C891        C892   1.579       .  S
C892        C896   1.585   1_545  S
C892        C894   1.581       .  S
C892        H898   1.110       .  S
C893        H899   1.087       .  S
C893        C894   1.366       .  D
C894       C1013   1.455       .  S
C895       H1314   1.084       .  S
C895        C896   1.388       .  D
C896       C1293   1.550       .  S
H900       C1309   1.078       .  S
O901        C909   1.301       .  A
O901      Co1335   2.090   1_545  S
O902        C910   1.269       .  A
O902       Co922   2.004       .  S
O903        C911   1.257   1_556  A
O903       Co923   1.991   1_556  S
O904        C912   1.275       .  A
O904      Co1131   1.918       .  S
O905        C911   1.268       .  A
O905       Co922   2.015       .  S
O906        C912   1.297       .  A
O906      Co1335   2.076   1_545  S
O907        C910   1.254   1_556  A
O907       Co924   1.967       .  S
O908        C909   1.265       .  A
O908      Co1130   1.896       .  S
C909       C1027   1.438       .  S
C910       C1009   1.461   1_554  S
C911       C1000   1.484       .  S
C912       C1015   1.455       .  S
O913        C926   1.259       .  A
O913       Co921   2.007       .  S
O914        C927   1.275       .  A
O914       Co922   2.005       .  S
O915       C1135   1.243       .  A
O915      Co1337   1.966       .  S
O916        C929   1.274       .  A
O916       Co924   2.028   1_554  S
O917        C929   1.273       .  A
O917       Co922   1.999       .  S
O918        C928   1.250       .  A
O918       Co921   1.979       .  S
O919        C926   1.239       .  A
O919      Co1545   1.953       .  S
O920        C927   1.274       .  A
O920       Co923   2.016       .  S
Co921      O1315   2.095       .  S
Co921      O1320   2.081       .  S
Co921      O1546   2.263       .  S
Co922       O925   2.087       .  S
Co923      O1115   1.923   1_554  S
Co923      O1329   1.972   1_545  S
Co923       O925   1.933       .  S
Co924      O1111   1.913       .  S
Co924      O1540   1.957   1_546  S
Co924       O925   1.952   1_556  S
O925      Co1542   2.235   1_544  S
C926        C996   1.474       .  S
C927       C1024   1.453       .  S
C928       O1122   1.247       .  A
C928       C1004   1.463       .  S
C929       C1012   1.456       .  S
O930        C938   1.263       .  A
O930       Co950   2.005       .  S
O931        C939   1.272       .  A
O931       Co951   1.996       .  S
O932        C940   1.268       .  A
O932       Co952   2.011       .  S
O933       C1148   1.245   1_554  A
O933       Co953   1.975   1_654  S
O934        C940   1.278       .  A
O934       Co951   2.024       .  S
O935        C941   1.254       .  A
O935       Co950   1.991       .  S
O936       Co953   2.013   1_554  S
O937       C1145   1.240   1_554  A
C938       O1144   1.255       .  A
C938       C1008   1.470       .  S
C939       C1021   1.449       .  S
C940       C1032   1.465       .  S
C941       O1140   1.241       .  A
C941        C993   1.464       .  S
O942        C955   1.283   1_655  A
O942       Co950   2.052       .  S
O943        C956   1.266       .  A
O943       Co951   2.008       .  S
O944      Co1159   1.901       .  S
O945        C958   1.256   1_556  A
O946        C958   1.271       .  A
O946       Co951   2.023       .  S
O947        C957   1.263   1_455  A
O947       Co950   2.007   1_455  S
O948        C955   1.268       .  A
O948      Co1160   1.908       .  S
O949        C956   1.265   1_556  A
O949       Co952   1.996   1_556  S
Co951       O954   2.089       .  S
Co952      O1151   1.894   1_554  S
Co952       O954   1.930       .  S
Co953      O1155   1.927   1_455  S
C955       C1022   1.435       .  S
C956        C988   1.481       .  S
C957       C1035   1.426   1_655  S
C958       C1005   1.473   1_554  S
O959        C967   1.255       .  A
O959       Co979   2.009       .  S
O960        C968   1.313       .  A
O960       Co980   2.118       .  S
O961        C969   1.271       .  A
O961       Co981   1.881       .  S
O962       C1177   1.267   1_554  A
O962       Co982   1.991       .  S
O963        C969   1.313       .  A
O963       Co980   2.110       .  S
O964        C970   1.245       .  A
O964       Co979   1.967       .  S
O965        C968   1.271       .  A
O965       Co982   1.905       .  S
O966       C1174   1.263   1_554  A
O966       Co981   1.997       .  S
C967       O1173   1.243       .  A
C967       C1196   1.485       .  S
C968       C1017   1.470       .  S
C969       C1029   1.444       .  S
C970       O1169   1.250       .  A
C970        C997   1.468       .  S
O971        C984   1.290       .  A
O971       Co979   2.058       .  S
O972        C985   1.253       .  A
O972       Co980   1.988       .  S
O973        C986   1.274       .  A
O973      Co1188   1.931       .  S
O974        C987   1.247   1_556  A
O974       Co982   1.969   1_556  S
O975        C987   1.255       .  A
O975       Co980   2.009       .  S
O976        C986   1.285       .  A
O976       Co979   2.059       .  S
O977        C984   1.271       .  A
O977      Co1189   1.902       .  S
O978        C985   1.252   1_556  A
O978       Co981   1.987   1_556  S
Co979      O1190   2.247       .  S
Co980       O983   2.258   1_554  S
Co981      O1180   2.039   1_554  S
Co981       O983   1.917   1_554  S
Co982      O1184   2.011   1_554  S
Co982       O983   1.927   1_554  S
O983      Co1186   2.069       .  S
C984       C1019   1.426       .  S
C985       C1001   1.477       .  S
C986       C1030   1.453       .  S
C987        C992   1.476       .  S
C988        H990   1.087       .  S
C988        C989   1.341   1_554  D
C989       H1198   1.087       .  S
C989       C1174   1.482       .  S
H991       C1196   1.087       .  S
C992        H994   1.087       .  S
C992       C1200   1.342   1_554  D
C993        H995   1.088       .  S
C993       C1199   1.335       .  D
C996       H1205   1.087       .  S
C996        C997   1.335       .  D
C997        H999   1.088       .  S
H998       C1203   1.087   1_554  S
C1000      H1209   1.086   1_554  S
C1000      C1001   1.344       .  D
C1001      H1003   1.087       .  S
H1002      C1207   1.087       .  S
C1004      H1006   1.087       .  S
C1004      C1212   1.347       .  D
C1005      H1007   1.087       .  S
C1005      C1211   1.342   1_556  D
C1008      H1217   1.087       .  S
C1008      C1216   1.347       .  D
C1009      H1011   1.086       .  S
C1009      C1215   1.338   1_556  D
H1010      C1215   1.088       .  S
C1012      C1013   1.217       .  T
C1014      C1015   1.218       .  T
C1016      C1017   1.227       .  T
C1018      C1019   1.201       .  T
C1020      C1021   1.213       .  T
C1022      C1023   1.207       .  T
C1024      C1025   1.217       .  T
C1026      C1027   1.208       .  T
C1028      C1029   1.212       .  T
C1030      C1031   1.217       .  T
C1032      C1033   1.223       .  T
C1034      C1035   1.201       .  T
C1036      C1042   1.505   1_455  S
C1036      C1040   1.499       .  S
C1036      C1241   1.453       .  S
C1037      H1044   1.088       .  S
C1037      C1038   1.380       .  D
C1038      C1055   1.544       .  S
C1039      C1043   1.572   1_455  S
C1039      H1045   1.110       .  S
C1040      H1046   1.088       .  S
C1041      C1240   1.471       .  S
C1042      H1047   1.079       .  S
C1042      C1043   1.382       .  D
C1043      C1098   1.534       .  S
C1048      C1049   1.524       .  S
C1048      C1054   1.519       .  S
C1048      C1052   1.513       .  S
C1048      C1238   1.475       .  S
C1049      H1056   1.085       .  S
C1049      C1050   1.370       .  D
C1050      C1051   1.556       .  S
C1050      C1067   1.533       .  S
C1051      C1055   1.591       .  S
C1051      C1053   1.578       .  S
C1051      H1057   1.110       .  S
C1052      H1058   1.088       .  S
C1052      C1053   1.367       .  D
C1053      C1235   1.451       .  S
C1054      H1059   1.088       .  S
C1054      C1055   1.386       .  D
C1060      C1061   1.503   1_545  S
C1060      C1066   1.492       .  S
C1060      C1064   1.516       .  S
C1060      C1233   1.469       .  S
C1061      H1482   1.078       .  S
C1061      C1062   1.379       .  D
C1062      C1063   1.583   1_565  S
C1062      C1493   1.538       .  S
C1063      C1067   1.583       .  S
C1063      C1065   1.582       .  S
C1063      H1069   1.110       .  S
C1064      H1070   1.087       .  S
C1064      C1065   1.365       .  D
C1065      C1232   1.465       .  S
C1066      H1071   1.082       .  S
C1066      C1067   1.374       .  D
H1068      C1475   1.087       .  S
C1072      C1078   1.497       .  S
C1072      C1076   1.510       .  S
C1073      H1080   1.086       .  S
C1073      C1074   1.382       .  D
C1074      C1091   1.551       .  S
C1075      C1079   1.594       .  S
C1075      H1081   1.110       .  S
C1076      H1082   1.087       .  S
C1078      H1083   1.088       .  S
C1078      C1079   1.376       .  D
C1079      C1476   1.527       .  S
C1084      C1085   1.496       .  S
C1084      C1090   1.486       .  S
C1084      C1088   1.504       .  S
C1084      C1225   1.451       .  S
C1085      H1092   1.080       .  S
C1085      C1086   1.372       .  D
C1086      C1087   1.603       .  S
C1086      C1517   1.555       .  S
C1087      C1091   1.607       .  S
C1087      C1089   1.602       .  S
C1087      H1093   1.109       .  S
C1088      H1094   1.088       .  S
C1088      C1089   1.361       .  D
C1089      C1223   1.477       .  S
C1090      H1095   1.083       .  S
C1090      C1091   1.369       .  D
C1096      C1097   1.511       .  S
C1096      C1102   1.506       .  S
C1096      C1100   1.516       .  S
C1096      C1221   1.476       .  S
C1097      H1104   1.082       .  S
C1097      C1098   1.367       .  D
C1098      C1099   1.571       .  S
C1099      C1103   1.588       .  S
C1099      C1101   1.580       .  S
C1099      H1105   1.110       .  S
C1100      H1106   1.087       .  S
C1100      C1101   1.369       .  D
C1101      C1220   1.461       .  S
C1102      H1521   1.087   1_545  S
C1102      C1103   1.380       .  D
C1103      C1500   1.533   1_545  S
H1107      C1516   1.080       .  S
O1108      C1116   1.286       .  A
O1108     Co1542   2.035   1_545  S
O1109      C1117   1.267       .  A
O1109     Co1129   2.003       .  S
O1110      C1118   1.257       .  A
O1110     Co1130   1.988       .  S
O1111      C1119   1.269       .  A
O1112      C1118   1.271       .  A
O1112     Co1129   2.012       .  S
O1113      C1119   1.285       .  A
O1113     Co1542   2.062   1_545  S
O1114      C1117   1.258       .  A
O1114     Co1131   1.983       .  S
O1115      C1116   1.277       .  A
C1116      C1234   1.432       .  S
C1117      C1216   1.472       .  S
C1118      C1207   1.480       .  S
C1119      C1222   1.443       .  S
O1120      C1133   1.253       .  A
O1120     Co1128   2.005       .  S
O1121      C1134   1.273       .  A
O1121     Co1129   2.017       .  S
O1122     Co1544   1.965       .  S
O1123      C1136   1.276       .  A
O1123     Co1131   2.027       .  S
O1124      C1136   1.276       .  A
O1124     Co1129   2.003       .  S
O1125      C1135   1.251   1_556  A
O1125     Co1128   1.994       .  S
O1126      C1133   1.239   1_554  A
O1126     Co1338   1.963   1_554  S
O1127      C1134   1.267       .  A
O1127     Co1130   2.013       .  S
Co1128     O1522   2.094       .  S
Co1128     O1527   2.096       .  S
Co1128     O1339   2.259   1_556  S
Co1129     O1132   2.086       .  S
Co1130     O1536   1.959   1_545  S
Co1130     O1132   1.921       .  S
Co1131     O1333   1.958   1_545  S
Co1131     O1132   1.924       .  S
O1132     Co1335   2.264   1_545  S
C1133      C1203   1.479       .  S
C1134      C1231   1.464       .  S
C1135      C1211   1.473       .  S
C1136      C1219   1.459       .  S
O1137      C1145   1.251       .  A
O1137     Co1157   1.989       .  S
O1138      C1146   1.275       .  A
O1138     Co1158   1.998       .  S
O1139      C1147   1.271       .  A
O1139     Co1159   2.030       .  S
O1140     Co1160   1.955   1_655  S
O1141      C1147   1.268       .  A
O1141     Co1158   2.004       .  S
O1142      C1148   1.252       .  A
O1142     Co1157   2.002       .  S
O1143     Co1160   2.028       .  S
C1145      C1215   1.458   1_556  S
C1146      C1228   1.445       .  S
C1147      C1239   1.466       .  S
C1148      C1200   1.475       .  S
O1149      C1162   1.289       .  A
O1149     Co1157   2.062   1_455  S
O1150      C1163   1.273       .  A
O1150     Co1158   2.049       .  S
O1152      C1165   1.257       .  A
O1153      C1165   1.260       .  A
O1153     Co1158   1.986       .  S
O1154      C1164   1.285       .  A
O1154     Co1157   2.043   1_455  S
O1155      C1162   1.273   1_655  A
O1156      C1163   1.251       .  A
O1156     Co1159   1.982       .  S
Co1158     O1161   2.099       .  S
Co1159     O1161   1.918       .  S
C1162      C1229   1.450       .  S
C1163      C1195   1.479       .  S
C1164      C1242   1.417       .  S
C1165      C1212   1.464       .  S
O1166      C1174   1.265       .  A
O1166     Co1186   2.016       .  S
O1167      C1175   1.279       .  A
O1167     Co1187   2.021       .  S
O1168      C1176   1.270       .  A
O1168     Co1188   1.998       .  S
O1169     Co1189   1.983       .  S
O1170      C1176   1.282       .  A
O1170     Co1187   2.014       .  S
O1171      C1177   1.266       .  A
O1171     Co1186   2.003       .  S
O1172      C1175   1.275       .  A
O1172     Co1189   2.036       .  S
O1173     Co1188   1.967       .  S
C1175      C1224   1.479       .  S
C1176      C1236   1.447       .  S
C1177      C1204   1.476       .  S
O1178      C1191   1.248       .  A
O1178     Co1186   1.944       .  S
O1179      C1192   1.263       .  A
O1179     Co1187   1.992       .  S
O1180      C1193   1.271       .  A
O1181      C1194   1.251       .  A
O1181     Co1189   1.981       .  S
O1182      C1194   1.266       .  A
O1182     Co1187   2.014       .  S
O1183      C1193   1.250       .  A
O1183     Co1186   1.954       .  S
O1184      C1191   1.267       .  A
O1185      C1192   1.266       .  A
O1185     Co1188   1.994       .  S
Co1187     O1190   2.099       .  S
Co1188     O1190   1.964       .  S
Co1189     O1190   1.931       .  S
C1191      C1226   1.413       .  S
C1192      C1208   1.470       .  S
C1193      C1237   1.441       .  S
C1194      C1199   1.465       .  S
C1195      H1197   1.086       .  S
C1195      C1196   1.343       .  D
C1199      H1201   1.087       .  S
C1200      H1202   1.087       .  S
C1203      C1204   1.339       .  D
C1204      H1206   1.087       .  S
C1207      C1208   1.341       .  D
C1208      H1210   1.088       .  S
C1211      H1213   1.087       .  S
C1212      H1214   1.087       .  S
C1216      H1218   1.086       .  S
C1219      C1220   1.220       .  T
C1221      C1222   1.212       .  T
C1223      C1224   1.232       .  T
C1225      C1226   1.195       .  T
C1227      C1228   1.211       .  T
C1229      C1230   1.215       .  T
C1231      C1232   1.223       .  T
C1233      C1234   1.205       .  T
C1235      C1236   1.214       .  T
C1237      C1238   1.211       .  T
C1239      C1240   1.224       .  T
C1241      C1242   1.196       .  T
C1243      C1249   1.506   1_455  S
C1243      C1247   1.516   1_455  S
C1243      C1448   1.451       .  S
C1244      H1251   1.081       .  S
C1244      C1245   1.372       .  D
C1245      C1262   1.535       .  S
C1246      C1250   1.578   1_455  S
C1246      H1252   1.110   1_455  S
C1247      H1253   1.088       .  S
C1248      C1447   1.470       .  S
C1249      H1254   1.085       .  S
C1249      C1250   1.373       .  D
C1250      C1305   1.537       .  S
C1255      C1256   1.510       .  S
C1255      C1261   1.527       .  S
C1255      C1259   1.516       .  S
C1255      C1445   1.490       .  S
C1256      H1263   1.089       .  S
C1256      C1257   1.381       .  D
C1257      C1258   1.585       .  S
C1257      C1274   1.524       .  S
C1258      C1262   1.546       .  S
C1258      C1260   1.567       .  S
C1258      H1264   1.110       .  S
C1259      H1265   1.087       .  S
C1259      C1260   1.372       .  D
C1260      C1442   1.444       .  S
C1261      H1266   1.083       .  S
C1261      C1262   1.379       .  D
C1267      C1268   1.501       .  S
C1267      C1273   1.495       .  S
C1267      C1271   1.546       .  S
C1267      C1440   1.480       .  S
C1268      C1269   1.387       .  D
C1269      C1270   1.578       .  S
C1270      C1274   1.581       .  S
C1270      C1272   1.533       .  S
C1270      H1276   1.110       .  S
C1271      H1277   1.087       .  S
C1271      C1272   1.359       .  D
C1272      C1439   1.456       .  S
C1273      H1278   1.088       .  S
C1273      C1274   1.381       .  D
C1279      C1285   1.512       .  S
C1279      C1283   1.515       .  S
C1280      H1287   1.085       .  S
C1280      C1281   1.379       .  D
C1281      C1298   1.539       .  S
C1282      C1286   1.592       .  S
C1282      H1288   1.110       .  S
C1283      H1289   1.087       .  S
C1285      H1290   1.089       .  S
C1285      C1286   1.381       .  D
C1291      C1292   1.503       .  S
C1291      C1297   1.478       .  S
C1291      C1295   1.516       .  S
C1291      C1432   1.448       .  S
C1292      H1299   1.086       .  S
C1292      C1293   1.370       .  D
C1293      C1294   1.596       .  S
C1294      C1298   1.610       .  S
C1294      C1296   1.584       .  S
C1294      H1300   1.110       .  S
C1295      H1301   1.088       .  S
C1295      C1296   1.361       .  D
C1296      C1430   1.470       .  S
C1297      H1302   1.083       .  S
C1297      C1298   1.369       .  D
C1303      C1304   1.495       .  S
C1303      C1309   1.512       .  S
C1303      C1307   1.508       .  S
C1303      C1428   1.485       .  S
C1304      H1311   1.082       .  S
C1304      C1305   1.379       .  D
C1305      C1306   1.583       .  S
C1306      C1310   1.573       .  S
C1306      C1308   1.575       .  S
C1306      H1312   1.110       .  S
C1307      H1313   1.088       .  S
C1307      C1308   1.364       .  D
C1308      C1427   1.448       .  S
C1309      C1310   1.386       .  D
O1315      C1323   1.303       .  A
O1316      C1324   1.263       .  A
O1316     Co1336   1.993       .  S
O1317      C1325   1.270   1_556  A
O1317     Co1337   1.999   1_556  S
O1318      C1326   1.271       .  A
O1318     Co1545   1.908       .  S
O1319      C1325   1.269       .  A
O1319     Co1336   2.009       .  S
O1320      C1326   1.298       .  A
O1321      C1324   1.270   1_556  A
O1321     Co1338   1.984       .  S
O1322      C1323   1.269       .  A
O1322     Co1544   1.902       .  S
C1323      C1441   1.448       .  S
C1324      C1423   1.472       .  S
C1325      C1414   1.484       .  S
C1326      C1429   1.448       .  S
O1327      C1340   1.256       .  A
O1327     Co1335   2.000       .  S
O1328      C1341   1.273       .  A
O1328     Co1336   2.001       .  S
O1329      C1549   1.240       .  A
O1330      C1343   1.273       .  A
O1330     Co1338   2.016   1_554  S
O1331      C1343   1.276       .  A
O1331     Co1336   2.001       .  S
O1332      C1342   1.252       .  A
O1332     Co1335   1.982       .  S
O1333      C1340   1.240       .  A
O1334      C1341   1.271       .  A
O1334     Co1337   2.013       .  S
Co1336     O1339   2.082       .  S
Co1337     O1529   1.906   1_554  S
Co1337     O1339   1.944       .  S
Co1338     O1525   1.914       .  S
Co1338     O1339   1.939   1_556  S
C1340      C1410   1.472       .  S
C1341      C1438   1.450       .  S
C1342      O1536   1.244       .  A
C1342      C1418   1.459       .  S
C1343      C1426   1.449       .  S
O1344      C1352   1.268       .  A
O1344     Co1364   2.017       .  S
O1345      C1353   1.310       .  A
O1345     Co1365   2.102       .  S
O1346      C1354   1.262       .  A
O1346     Co1366   1.895       .  S
O1347      C1562   1.256   1_554  A
O1347     Co1367   1.959   1_554  S
O1348      C1354   1.312       .  A
O1348     Co1365   2.137       .  S
O1349      C1355   1.251       .  A
O1349     Co1364   1.989       .  S
O1350     Co1367   1.946   1_554  S
O1351      C1559   1.269   1_554  A
C1352      O1558   1.252       .  A
C1352      C1422   1.465       .  S
C1353      C1435   1.442       .  S
C1354      C1446   1.467       .  S
C1355      O1554   1.251       .  A
C1355      C1407   1.478       .  S
O1356      C1369   1.286   1_655  A
O1356     Co1364   2.067       .  S
O1357      C1370   1.260       .  A
O1357     Co1365   2.027       .  S
O1358     Co1573   1.955       .  S
O1359      C1372   1.244   1_556  A
O1360      C1372   1.255       .  A
O1360     Co1365   2.000       .  S
O1361      C1371   1.256   1_455  A
O1361     Co1364   1.984   1_455  S
O1362      C1369   1.269       .  A
O1362     Co1574   1.918       .  S
O1363      C1370   1.247   1_556  A
O1363     Co1366   1.978   1_556  S
Co1365     O1368   2.260   1_554  S
Co1366     O1565   1.985   1_554  S
Co1366     O1368   1.920   1_554  S
Co1367     O1569   1.990       .  S
C1369      C1436   1.446       .  S
C1370      C1402   1.490       .  S
C1371      C1449   1.414   1_655  S
C1372      C1419   1.469   1_554  S
O1373      C1381   1.252       .  A
O1373     Co1393   2.011       .  S
O1374      C1382   1.278       .  A
O1374     Co1394   2.028       .  S
O1375      C1383   1.274       .  A
O1375     Co1395   2.013   1_554  S
O1376      C1591   1.252   1_554  A
O1376     Co1396   1.978   1_554  S
O1377      C1383   1.272       .  A
O1377     Co1394   1.989       .  S
O1378      C1384   1.249       .  A
O1378     Co1393   1.974       .  S
O1379      C1382   1.266       .  A
O1379     Co1396   2.009   1_554  S
O1380      C1588   1.241   1_554  A
O1380     Co1395   1.983   1_554  S
C1381      O1587   1.243       .  A
C1381      C1610   1.482       .  S
C1382      C1431   1.469       .  S
C1383      C1443   1.441       .  S
C1384      O1583   1.251       .  A
C1384      C1411   1.466       .  S
O1385      C1398   1.286       .  A
O1385     Co1393   2.033       .  S
O1386      C1399   1.272       .  A
O1386     Co1394   2.029       .  S
O1387      C1400   1.275       .  A
O1387     Co1602   1.938       .  S
O1388      C1401   1.267   1_556  A
O1388     Co1396   1.998       .  S
O1389      C1401   1.264       .  A
O1389     Co1394   1.998       .  S
O1390      C1400   1.287       .  A
O1390     Co1393   2.057       .  S
O1391      C1398   1.271       .  A
O1391     Co1603   1.898       .  S
O1392      C1399   1.258   1_556  A
O1392     Co1395   1.990       .  S
Co1393     O1604   2.260       .  S
Co1394     O1397   2.086       .  S
Co1395     O1594   1.937       .  S
Co1395     O1397   1.922   1_556  S
Co1396     O1598   1.889       .  S
Co1396     O1397   1.931   1_556  S
O1397     Co1600   2.259   1_554  S
C1398      C1433   1.411       .  S
C1399      C1415   1.491       .  S
C1400      C1444   1.457       .  S
C1401      C1406   1.472       .  S
C1402      H1404   1.087       .  S
C1402      C1403   1.351   1_554  D
C1403      H1612   1.086       .  S
C1403      C1588   1.488       .  S
H1405      C1610   1.086       .  S
C1406      H1408   1.087       .  S
C1406      C1614   1.340   1_554  D
C1407      H1409   1.087       .  S
C1407      C1613   1.345       .  D
C1410      H1619   1.087       .  S
C1410      C1411   1.337       .  D
C1411      H1413   1.087       .  S
H1412      C1617   1.087       .  S
C1414      H1623   1.087       .  S
C1414      C1415   1.344       .  D
C1415      H1417   1.086   1_554  S
H1416      C1621   1.087       .  S
C1418      H1420   1.087       .  S
C1418      C1626   1.343       .  D
C1419      H1421   1.087       .  S
C1419      C1625   1.342   1_556  D
C1422      H1631   1.088       .  S
C1422      C1630   1.341       .  D
C1423      H1425   1.087       .  S
C1423      C1629   1.330   1_554  D
H1424      C1629   1.087       .  S
C1426      C1427   1.213       .  T
C1428      C1429   1.214       .  T
C1430      C1431   1.226       .  T
C1432      C1433   1.193       .  T
C1434      C1435   1.209       .  T
C1436      C1437   1.213       .  T
C1438      C1439   1.215       .  T
C1440      C1441   1.213       .  T
C1442      C1443   1.209       .  T
C1444      C1445   1.219       .  T
C1446      C1447   1.226       .  T
C1448      C1449   1.194       .  T
C1450      C1456   1.511   1_455  S
C1450      C1454   1.511       .  S
C1450      C1655   1.435       .  S
C1451      H1458   1.081       .  S
C1451      C1452   1.368       .  D
C1452      C1469   1.527       .  S
C1453      C1457   1.578   1_455  S
C1453      H1459   1.110       .  S
C1454      H1460   1.088   1_455  S
C1455      C1654   1.462       .  S
C1456      H1461   1.087       .  S
C1456      C1457   1.372       .  D
C1457      C1512   1.541       .  S
C1462      C1463   1.508       .  S
C1462      C1468   1.521       .  S
C1462      C1466   1.506       .  S
C1462      C1652   1.481       .  S
C1463      H1470   1.088       .  S
C1463      C1464   1.379       .  D
C1464      C1465   1.577       .  S
C1464      C1481   1.521       .  S
C1465      C1469   1.541       .  S
C1465      C1467   1.569       .  S
C1465      H1471   1.110       .  S
C1466      H1472   1.087       .  S
C1466      C1467   1.369       .  D
C1467      C1649   1.433       .  S
C1468      H1473   1.082       .  S
C1468      C1469   1.381       .  D
C1474      C1475   1.498       .  S
C1474      C1480   1.501       .  S
C1474      C1478   1.551       .  S
C1474      C1647   1.489       .  S
C1475      C1476   1.385       .  D
C1476      C1477   1.578       .  S
C1477      C1481   1.577       .  S
C1477      C1479   1.532       .  S
C1477      H1483   1.110       .  S
C1478      H1484   1.087       .  S
C1478      C1479   1.365       .  D
C1479      C1646   1.463       .  S
C1480      H1485   1.088       .  S
C1480      C1481   1.382       .  D
C1486      C1492   1.519       .  S
C1486      C1490   1.506       .  S
C1487      H1494   1.088       .  S
C1487      C1488   1.388       .  D
C1488      C1505   1.537       .  S
C1489      C1493   1.565       .  S
C1489      H1495   1.110       .  S
C1490      H1496   1.088       .  S
C1492      H1497   1.080       .  S
C1492      C1493   1.373       .  D
C1498      C1499   1.486       .  S
C1498      C1504   1.501       .  S
C1498      C1502   1.548       .  S
C1498      C1639   1.471       .  S
C1499      H1506   1.086       .  S
C1499      C1500   1.380       .  D
C1500      C1501   1.597       .  S
C1501      C1505   1.595       .  S
C1501      C1503   1.544       .  S
C1501      H1507   1.110       .  S
C1502      H1508   1.087       .  S
C1502      C1503   1.363       .  D
C1503      C1637   1.472       .  S
C1504      H1509   1.089       .  S
C1504      C1505   1.375       .  D
C1510      C1511   1.497       .  S
C1510      C1516   1.515       .  S
C1510      C1514   1.512       .  S
C1510      C1635   1.501       .  S
C1511      H1518   1.084       .  S
C1511      C1512   1.383       .  D
C1512      C1513   1.585       .  S
C1513      C1517   1.575       .  S
C1513      C1515   1.584       .  S
C1513      H1519   1.110       .  S
C1514      H1520   1.087       .  S
C1514      C1515   1.368       .  D
C1515      C1634   1.462       .  S
C1516      C1517   1.389       .  D
O1522      C1530   1.301       .  A
O1523      C1531   1.267       .  A
O1523     Co1543   2.004       .  S
O1524      C1532   1.255       .  A
O1524     Co1544   1.985       .  S
O1525      C1533   1.274       .  A
O1526      C1532   1.271       .  A
O1526     Co1543   2.019       .  S
O1527      C1533   1.300       .  A
O1528      C1531   1.254       .  A
O1528     Co1545   1.981       .  S
O1529      C1530   1.270       .  A
C1530      C1648   1.455       .  S
C1531      C1630   1.470       .  S
C1532      C1621   1.482       .  S
C1533      C1636   1.464       .  S
O1534      C1547   1.257   1_556  A
O1534     Co1542   1.982       .  S
O1535      C1548   1.267       .  A
O1535     Co1543   1.994       .  S
O1537      C1550   1.274       .  A
O1537     Co1545   2.031       .  S
O1538      C1550   1.271       .  A
O1538     Co1543   1.999       .  S
O1539      C1549   1.249   1_556  A
O1539     Co1542   1.993       .  S
O1540      C1547   1.242       .  A
O1541      C1548   1.273       .  A
O1541     Co1544   2.026       .  S
Co1543     O1546   2.090       .  S
Co1544     O1546   1.925       .  S
Co1545     O1546   1.924       .  S
C1547      C1617   1.469       .  S
C1548      C1645   1.457       .  S
C1549      C1625   1.469       .  S
C1550      C1633   1.461       .  S
O1551      C1559   1.260       .  A
O1551     Co1571   1.989       .  S
O1552      C1560   1.276       .  A
O1552     Co1572   2.007       .  S
O1553      C1561   1.260       .  A
O1553     Co1573   1.969       .  S
O1554     Co1574   1.992   1_655  S
O1555      C1561   1.286       .  A
O1555     Co1572   2.051       .  S
O1556      C1562   1.267       .  A
O1556     Co1571   2.028       .  S
O1557     Co1574   1.999       .  S
C1559      C1629   1.471       .  S
C1560      C1642   1.459       .  S
C1561      C1653   1.457       .  S
C1562      C1614   1.476       .  S
O1563      C1576   1.260       .  A
O1563     Co1571   1.980       .  S
O1564      C1577   1.269       .  A
O1564     Co1572   2.039       .  S
O1566      C1579   1.259       .  A
O1567      C1579   1.266       .  A
O1567     Co1572   1.993       .  S
O1568      C1578   1.251       .  A
O1568     Co1571   1.945   1_455  S
O1569      C1576   1.261       .  A
O1570      C1577   1.250       .  A
O1570     Co1573   1.969       .  S
Co1572     O1575   2.130       .  S
Co1573     O1575   1.982       .  S
C1576      C1643   1.435       .  S
C1577      C1609   1.483       .  S
C1578      C1656   1.399       .  S
C1579      C1626   1.460       .  S
O1580      C1588   1.254       .  A
O1580     Co1600   2.027       .  S
O1581      C1589   1.272       .  A
O1581     Co1601   2.006       .  S
O1582      C1590   1.268       .  A
O1582     Co1602   1.990       .  S
O1583     Co1603   1.975       .  S
O1584      C1590   1.274       .  A
O1584     Co1601   1.996       .  S
O1585      C1591   1.247       .  A
O1585     Co1600   1.955       .  S
O1586      C1589   1.272       .  A
O1586     Co1603   2.026       .  S
O1587     Co1602   1.979       .  S
C1589      C1638   1.467       .  S
C1590      C1650   1.432       .  S
C1591      C1618   1.458       .  S
O1592      C1605   1.296       .  A
O1592     Co1600   2.084       .  S
O1593      C1606   1.263       .  A
O1593     Co1601   1.986       .  S
O1594      C1607   1.280       .  A
O1595      C1608   1.258       .  A
O1595     Co1603   1.989       .  S
O1596      C1608   1.268       .  A
O1596     Co1601   2.031       .  S
O1597      C1607   1.289       .  A
O1597     Co1600   2.046       .  S
O1598      C1605   1.264       .  A
O1599      C1606   1.267       .  A
O1599     Co1602   2.001       .  S
Co1601     O1604   2.088       .  S
Co1602     O1604   1.940       .  S
Co1603     O1604   1.928       .  S
C1605      C1640   1.436       .  S
C1606      C1622   1.472       .  S
C1607      C1651   1.449       .  S
C1608      C1613   1.484       .  S
C1609      H1611   1.087       .  S
C1609      C1610   1.349       .  D
C1613      H1615   1.087       .  S
C1614      H1616   1.086       .  S
C1617      C1618   1.333   1_554  D
C1618      H1620   1.088       .  S
C1621      C1622   1.339       .  D
C1622      H1624   1.087       .  S
C1625      H1627   1.087       .  S
C1626      H1628   1.087       .  S
C1630      H1632   1.086       .  S
C1633      C1634   1.221       .  T
C1635      C1636   1.223       .  T
C1637      C1638   1.224       .  T
C1639      C1640   1.207       .  T
C1641      C1642   1.220       .  T
C1643      C1644   1.206       .  T
C1645      C1646   1.219       .  T
C1647      C1648   1.218       .  T
C1649      C1650   1.203       .  T
C1651      C1652   1.214       .  T
C1653      C1654   1.220       .  T
C1655      C1656   1.186       .  T
