geometry optimzed in LAMMPS
_audit_creation_date              2020-11-30 
_audit_creation_method            'lammps2cif' 
_symmetry_space_group_name_H-M    'P1' 
_symmetry_Int_Tables_number       1 
_symmetry_cell_setting            triclinic 
loop_ 
_symmetry_equiv_pos_as_xyz 
  x,y,z 
_cell_length_a                    19.78507447 
_cell_length_b                    32.8749763231735 
_cell_length_c                    21.274413442165464 
_cell_angle_alpha                 90.11911655003526 
_cell_angle_beta                  91.44885666263585 
_cell_angle_gamma                 90.9172580248783 
loop_ 
_atom_site_label 
_atom_site_type_symbol 
_atom_site_fract_x 
_atom_site_fract_y 
_atom_site_fract_z 
_atom_site_charge 
C1          C  0.06302075  0.81527533  0.20391244    -0.01500
C2          C  0.08902471  0.74220854  0.05637251    -0.01500
C3          C  0.24079350  0.80409008  0.30388085    -0.01500
C4          C  0.25440117  0.73593104  0.45950833    -0.01500
C5          C  0.06817767  0.24348027  0.18674964    -0.01500
C6          C  0.07248813  0.32037253  0.04265818    -0.01500
C7          C  0.23707794  0.22842141  0.28831296    -0.01500
C8          C  0.23347462  0.30535791  0.43441844    -0.01500
O9          O  0.13979150  0.48140940  0.32213883    -0.73500
O10         O  0.09409500  0.56975935  0.21359053    -0.73500
O11         O  0.09195758  0.48711178  0.20462817    -0.73600
O12         O  0.14411308  0.56499563  0.33170792    -0.73600
O13         O  0.24927436  0.56606330  0.29632450    -0.73500
O14         O  0.19798446  0.48799333  0.17072242    -0.73500
O15         O  0.19975520  0.57139677  0.17912304    -0.73500
O16         O  0.24586419  0.48269248  0.28876197    -0.73600
Ni17       Ni  0.11381172  0.52585276  0.26946214     1.25400
Ni18       Ni  0.22698023  0.52711481  0.23244780     1.25400
C19         C  0.19863772  0.46586997  0.32029617     0.88700
C20         C  0.14005561  0.58608590  0.18033325     0.88600
C21         C  0.13779260  0.47324375  0.16941254     0.88700
C22         C  0.20439371  0.58008840  0.33234035     0.88800
O23         O  0.07928325  0.06853389  0.02632848    -0.73500
O24         O  0.02557969  0.98178791  0.43835850    -0.73500
O25         O  0.02527752  0.06512892  0.42954178    -0.73600
O26         O  0.08465085  0.98496942  0.03481690    -0.73600
O27         O  0.31337927  0.97665317  0.07321735    -0.73500
O28         O  0.25122390  0.05982026  0.46027254    -0.73500
O29         O  0.25647097  0.97658280  0.46512041    -0.73500
O30         O  0.30886310  0.05990996  0.07278469    -0.73600
Ni31       Ni  0.05832457  0.02646826  0.48967410     1.25400
Ni32       Ni  0.28183814  0.02032855  0.52081965     1.25400
C33         C  0.03549811  0.08377403  0.06272978     0.88700
C34         C  0.29854797  0.96205155  0.42668092     0.88600
C35         C  0.29136853  0.07484002  0.41959370     0.88700
C36         C  0.04222561  0.96943700  0.07265899     0.88800
C37         C  0.27809943  0.37829402  0.40933136    -0.12400
C38         C  0.22819236  0.34702612  0.40119570     0.09800
C39         C  0.16941775  0.35634366  0.36559940    -0.12400
C40         C  0.15974906  0.39527346  0.34127266    -0.12400
C41         C  0.20932356  0.42589682  0.34991575     0.09800
C42         C  0.26918801  0.41690902  0.38297255    -0.12400
H43         H  0.32382355  0.37372189  0.43709749     0.13700
H44         H  0.13024461  0.33357188  0.35693580     0.13700
H45         H  0.11377560  0.40126146  0.31434112     0.13700
H46         H  0.30835267  0.44002720  0.38968106     0.13700
C47         C  0.30006086  0.15936852  0.30050664    -0.12400
C48         C  0.24990517  0.18647783  0.32061947     0.09800
C49         C  0.20667646  0.17185254  0.36809959    -0.12400
C50         C  0.21735364  0.13453472  0.39789585    -0.12400
C51         C  0.27121452  0.11010606  0.38088226     0.09800
C52         C  0.31113812  0.12240519  0.33073319    -0.12400
H53         H  0.33154384  0.16558571  0.26113361     0.13700
H54         H  0.16246404  0.18817761  0.38123295     0.13700
H55         H  0.18446291  0.12540360  0.43547783     0.13700
H56         H  0.03086533  0.10954827  0.32980886     0.13700
C57         C  0.24876471  0.26437613  0.33437201    -0.15500
C58         C  0.21570599  0.27041052  0.38840215    -0.30700
H59         H  0.28752426  0.28684326  0.32318616     0.13500
H60         H  0.17463099  0.25021435  0.39998350     0.14100
C61         C  0.08518777  0.43543096  0.07832243    -0.12400
C62         C  0.12401654  0.43595602  0.13398801     0.09800
C63         C  0.14882908  0.39965816  0.15878166    -0.12400
C64         C  0.13233706  0.36270268  0.13002609    -0.12400
C65         C  0.09032160  0.36101951  0.07559455     0.09800
C66         C  0.07013730  0.39836433  0.04837990    -0.12400
H67         H  0.06688671  0.46350799  0.05807105     0.13700
H68         H  0.18036003  0.39988792  0.20118795     0.13700
H69         H  0.15395691  0.33570402  0.15008949     0.13700
H70         H  0.04164200  0.39892680  0.00437062     0.13700
C71         C  0.30694186  0.29914729  0.45842332    -0.15500
C72         C  0.99957711  0.32112886  0.01739299    -0.30700
H73         H  0.34489648  0.30178113  0.42270466     0.13500
H74         H  0.96700019  0.34529839  0.03287557     0.14100
C75         C  0.11876466  0.31716932  0.98707388    -0.15500
C76         C  0.18333316  0.30629353  0.48874114    -0.30700
H77         H  0.09766185  0.31801914  0.93944360     0.13500
H78         H  0.20042813  0.31904569  0.53340071     0.14100
C79         C  0.11077061  0.13643456  0.11758202    -0.12400
C80         C  0.04757197  0.12394916  0.09275323     0.09800
C81         C  0.99465786  0.15173209  0.09199936    -0.12400
C82         C  0.00347692  0.19042129  0.11809366    -0.12400
C83         C  0.06378503  0.20195860  0.15070893     0.09800
C84         C  0.11886579  0.17485192  0.14624576    -0.12400
H85         H  0.15350172  0.11631565  0.11575276     0.13700
H86         H  0.94665320  0.14399372  0.06897050     0.13700
H87         H  0.96310412  0.21152526  0.11037307     0.13700
H88         H  0.16887167  0.18277885  0.16400152     0.13700
C89         C  0.13866387  0.25163872  0.21667779    -0.15500
C90         C  0.16438317  0.22688141  0.26187605    -0.30700
H91         H  0.16853817  0.27761896  0.20189484     0.15700
H92         H  0.13282288  0.20093268  0.27445467     0.14100
C93         C  0.01985417  0.24363317  0.24244925    -0.15500
C94         C  0.28435705  0.23540845  0.23290892    -0.30700
H95         H  0.04106825  0.24634646  0.28998696     0.13500
H96         H  0.26210776  0.23816529  0.18652036     0.14100
C97         C  0.05081791  0.27816173  0.14107064    -0.15500
C98         C  0.08266338  0.28336150  0.08597114    -0.30700
H99         H  0.01253904  0.29983942  0.15381748     0.13500
H100        H  0.11997976  0.26104158  0.07331556     0.14100
C101        C  0.28640756  0.67932723  0.38489486    -0.12400
C102        C  0.24031244  0.69384646  0.42890406     0.09800
C103        C  0.18725848  0.66713182  0.44624900    -0.12400
C104        C  0.17697535  0.62954757  0.41676889    -0.12400
C105        C  0.22093203  0.61655816  0.37067778     0.09800
C106        C  0.27688398  0.64134993  0.35620833    -0.12400
H107        H  0.32974326  0.69780206  0.37212303     0.13700
H108        H  0.15321722  0.67407922  0.48282890     0.13700
H109        H  0.13404200  0.61078641  0.42971924     0.13700
H110        H  0.31204583  0.63214816  0.32085690     0.13700
C111        C  0.32103960  0.86101412  0.34791696    -0.12400
C112        C  0.25415270  0.84652721  0.33530326     0.09800
C113        C  0.20130247  0.87085921  0.35706962    -0.12400
C114        C  0.21490283  0.90892158  0.38541436    -0.12400
C115        C  0.28172761  0.92370724  0.39281627     0.09800
C116        C  0.33439266  0.89912542  0.37399922    -0.12400
H117        H  0.02691143  0.85339550  0.33376353     0.13700
H118        H  0.14942727  0.86065213  0.35321749     0.13700
H119        H  0.17326669  0.92665676  0.40196997     0.13700
H120        H  0.04999357  0.91810253  0.37962948     0.13700
C121        C  0.22352906  0.77370640  0.35665905    -0.15500
C122        C  0.26609633  0.76776492  0.40734352    -0.30700
H123        H  0.17662795  0.75618329  0.35299794     0.13500
H124        H  0.31289962  0.78513206  0.40850324     0.14100
C125        C  0.04882337  0.66906135  0.09019811    -0.12400
C126        C  0.09827311  0.70075446  0.09054729     0.09800
C127        C  0.15809941  0.69418541  0.12670588    -0.12400
C128        C  0.17275440  0.65629848  0.15214024    -0.12400
C129        C  0.12560491  0.62435028  0.14725000     0.09800
C130        C  0.06247368  0.63138492  0.11822134    -0.12400
H131        H  0.99897934  0.67280317  0.06964536     0.13700
H132        H  0.19328037  0.71875350  0.13773721     0.13700
H133        H  0.21982892  0.65256218  0.17852949     0.13700
H134        H  0.02372481  0.60771740  0.11715959     0.13700
C135        C  0.31596034  0.72796277  0.50376186    -0.15500
C136        C  0.01840057  0.74795012  0.02648642    -0.30700
H137        H  0.30513479  0.70438220  0.53788982     0.13500
H138        H  0.98513044  0.77808400  0.53179436     0.14100
C139        C  0.19974933  0.75088552  0.50426693    -0.15500
C140        C  0.13792872  0.74577034  0.00030693    -0.30700
H141        H  0.21741862  0.76130507  0.55039417     0.13500
H142        H  0.11682471  0.74869220  0.95285076     0.14100
C143        C  0.02625247  0.85983002  0.11336556    -0.12400
C144        C  0.07179386  0.85460866  0.16486928     0.09800
C145        C  0.11334609  0.88826533  0.18321345    -0.12400
C146        C  0.10664580  0.92610414  0.15240962    -0.12400
C147        C  0.05749042  0.93074558  0.10412709     0.09800
C148        C  0.01908245  0.89706384  0.08402179    -0.12400
H149        H  0.32559982  0.82953141  0.09713709     0.13700
H150        H  0.14821656  0.88622371  0.22298149     0.13700
H151        H  0.13732645  0.95193594  0.16804410     0.13700
H152        H  0.31007074  0.89412844  0.04621790     0.13700
C153        C  0.18447911  0.80614799  0.25054634    -0.15500
C154        C  0.11675382  0.80976538  0.25829206    -0.30700
H155        H  0.20064692  0.80539680  0.20215258     0.13500
H156        H  0.09903401  0.80734997  0.30583241     0.14100
C157        C  0.99154160  0.82069033  0.23212325    -0.15500
C158        C  0.30582151  0.78969537  0.27124391    -0.30700
H159        H  0.96605347  0.84924334  0.22274386     0.13500
H160        H  0.33011013  0.76163579  0.28539552     0.14100
C161        C  0.06285762  0.77827719  0.15901821    -0.15500
C162        C  0.10050140  0.77603940  0.10592930    -0.30700
H163        H  0.02448194  0.75480769  0.16600634     0.13500
H164        H  0.13864478  0.79934474  0.09724899     0.14100
C165        C  0.06433261  0.81372028  0.70089851    -0.01500
C166        C  0.08189972  0.74393730  0.54966544    -0.01500
C167        C  0.23758998  0.80225787  0.79981424    -0.01500
C168        C  0.25087859  0.72880231  0.94943292    -0.01500
C169        C  0.07089445  0.24754584  0.69552301    -0.01500
C170        C  0.06583351  0.31081535  0.53466534    -0.01500
C171        C  0.23822525  0.23239759  0.80081640    -0.01500
C172        C  0.23092613  0.31618730  0.93672748    -0.01500
O173        O  0.10912213  0.48163727  0.80804104    -0.73500
O174        O  0.06554966  0.56817309  0.69544085    -0.73500
O175        O  0.05731518  0.48471605  0.69052374    -0.73600
O176        O  0.11722906  0.56481801  0.81267744    -0.73600
O177        O  0.22137100  0.56266395  0.77519390    -0.73500
O178        O  0.16100467  0.48416342  0.65188953    -0.73500
O179        O  0.17037278  0.56685639  0.65906424    -0.73500
O180        O  0.21281704  0.47959453  0.76887418    -0.73600
Ni181      Ni  0.08346800  0.52485207  0.75299933     1.25400
Ni182      Ni  0.19502064  0.52314860  0.71243137     1.25400
C183        C  0.16731396  0.46550993  0.80478175     0.88700
C184        C  0.11259202  0.58346474  0.66216121     0.88600
C185        C  0.10011984  0.47020127  0.65246254     0.88700
C186        C  0.17836587  0.57841763  0.81178770     0.88800
O187        O  0.08296193  0.07092306  0.54465674    -0.73500
O188        O  0.02310614  0.97764529  0.92106937    -0.73500
O189        O  0.01960341  0.06130198  0.91207638    -0.73600
O190        O  0.08482398  0.98796292  0.55225460    -0.73600
O191        O  0.32077427  0.98143163  0.57803511    -0.73500
O192        O  0.24764097  0.05849367  0.96043167    -0.73500
O193        O  0.25063300  0.97496681  0.96063593    -0.73500
O194        O  0.31302712  0.06398876  0.57302827    -0.73600
Ni195      Ni  0.05534084  0.02313268  0.97195889     1.25400
Ni196      Ni  0.27665269  0.01738920  0.01848788     1.25400
C197        C  0.03913182  0.08650260  0.58042901     0.88700
C198        C  0.29351128  0.95989795  0.92346047     0.88600
C199        C  0.28822464  0.07398079  0.92068220     0.88700
C200        C  0.04127444  0.97266357  0.58904931     0.88800
C201        C  0.21794131  0.39296807  0.93207435    -0.12400
C202        C  0.21368950  0.35516559  0.90011891     0.09800
C203        C  0.19009437  0.35495365  0.83691842    -0.12400
C204        C  0.17487237  0.39119990  0.80643897    -0.12400
C205        C  0.18074540  0.42818227  0.83872369     0.09800
C206        C  0.20126739  0.42906778  0.90179221    -0.12400
H207        H  0.23304920  0.39449277  0.98114459     0.13700
H208        H  0.18248289  0.32726343  0.81035569     0.13700
H209        H  0.15812397  0.39041147  0.75751933     0.13700
H210        H  0.20519899  0.45762113  0.92723718     0.13700
C211        C  0.29187272  0.16006787  0.80343419    -0.12400
C212        C  0.24950177  0.18946415  0.83068192     0.09800
C213        C  0.21273489  0.17651238  0.88344207    -0.12400
C214        C  0.22247555  0.13818055  0.91057433    -0.12400
C215        C  0.26901569  0.11111886  0.88575112     0.09800
C216        C  0.30257831  0.12220003  0.83123090    -0.12400
H217        H  0.31718185  0.16528809  0.76002301     0.13700
H218        H  0.17499226  0.19527240  0.90370136     0.13700
H219        H  0.19501297  0.13028561  0.95236909     0.13700
H220        H  0.02975932  0.11042483  0.82056298     0.13700
C221        C  0.25435070  0.26741911  0.84749795    -0.15500
C222        C  0.21777219  0.27716227  0.89793685    -0.30700
H223        H  0.29598700  0.28813863  0.83708890     0.13500
H224        H  0.17348990  0.25907645  0.90854940     0.14100
C225        C  0.02611557  0.40930006  0.62596285    -0.12400
C226        C  0.08142443  0.43470273  0.61202386     0.09800
C227        C  0.12370402  0.42308611  0.56352549    -0.12400
C228        C  0.11530709  0.38518662  0.53430239    -0.12400
C229        C  0.06663385  0.35647537  0.55499237     0.09800
C230        C  0.01833219  0.37103136  0.59714820    -0.12400
H231        H  0.99076413  0.41801817  0.66144745     0.13700
H232        H  0.16509682  0.44275868  0.54952669     0.13700
H233        H  0.14919501  0.37881307  0.49704130     0.13700
H234        H  0.97472727  0.35266357  0.60888394     0.13700
C235        C  0.30471977  0.31959649  0.95893909    -0.15500
C236        C  0.99463430  0.29870156  0.50944350    -0.30700
H237        H  0.33542821  0.34426464  0.94016485     0.13500
H238        H  0.96545439  0.27586878  0.53421853     0.14100
C239        C  0.11541458  0.30211157  0.48156145    -0.15500
C240        C  0.18608421  0.31528101  0.99376761    -0.30700
H241        H  0.09477030  0.29183306  0.43645287     0.13500
H242        H  0.20836359  0.31568142  0.04098189     0.14100
C243        C  0.11227543  0.13712893  0.64069851    -0.12400
C244        C  0.05179654  0.12655759  0.60889718     0.09800
C245        C  0.00315139  0.15617453  0.59832740    -0.12400
C246        C  0.01289478  0.19519234  0.62187267    -0.12400
C247        C  0.06904898  0.20547366  0.66141788     0.09800
C248        C  0.12102196  0.17620245  0.66665356    -0.12400
H249        H  0.15214242  0.11511791  0.64621174     0.13700
H250        H  0.95815204  0.14946401  0.56976656     0.13700
H251        H  0.97638919  0.21745399  0.60727352     0.13700
H252        H  0.16882149  0.18261104  0.69015439     0.13700
C253        C  0.13978848  0.25684134  0.72851422    -0.15500
C254        C  0.16415745  0.23349624  0.77660474    -0.30700
H255        H  0.17040985  0.28200566  0.71141526     0.15700
H256        H  0.13101855  0.20901854  0.79215882     0.14100
C257        C  0.01704463  0.24754375  0.74686784    -0.15500
C258        C  0.28516147  0.23889926  0.74514181    -0.30700
H259        H  0.03313805  0.25011280  0.79599005     0.13500
H260        H  0.26301331  0.24360454  0.69904466     0.14100
C261        C  0.05448044  0.28055308  0.64643264    -0.15500
C262        C  0.08672529  0.28357481  0.59105650    -0.30700
H263        H  0.01045478  0.29866206  0.65406747     0.13500
H264        H  0.12948161  0.26362656  0.58531664     0.14100
C265        C  0.26752070  0.67627496  0.86265564    -0.12400
C266        C  0.22946005  0.68909608  0.91419306     0.09800
C267        C  0.17616750  0.66311787  0.93347255    -0.12400
C268        C  0.16018220  0.62694440  0.90105517    -0.12400
C269        C  0.19833696  0.61473541  0.84983510     0.09800
C270        C  0.25260057  0.63965218  0.83140139    -0.12400
H271        H  0.30960054  0.69471371  0.84678631     0.13700
H272        H  0.14685471  0.66978159  0.97408648     0.13700
H273        H  0.11805108  0.60834638  0.91639462     0.13700
H274        H  0.28259189  0.63140591  0.79155939     0.13700
C275        C  0.31696088  0.85765299  0.84859761    -0.12400
C276        C  0.25016742  0.84409060  0.83313961     0.09800
C277        C  0.19700656  0.86912425  0.85232980    -0.12400
C278        C  0.21039446  0.90727689  0.88027248    -0.12400
C279        C  0.27724709  0.92128699  0.89028931     0.09800
C280        C  0.33010700  0.89573830  0.87500479    -0.12400
H281        H  0.02079166  0.83550720  0.85732231     0.13700
H282        H  0.14493314  0.85978977  0.84601038     0.13700
H283        H  0.16849950  0.92579755  0.89413504     0.13700
H284        H  0.04657891  0.90065315  0.90251860     0.13700
C285        C  0.21967862  0.77002049  0.84972800    -0.15500
C286        C  0.25786103  0.76465795  0.90317573    -0.30700
H287        H  0.17579804  0.75030635  0.84128770     0.13500
H288        H  0.30186231  0.78447613  0.91013684     0.14100
C289        C  0.03086592  0.67606949  0.59211027    -0.12400
C290        C  0.08762595  0.70201459  0.58224380     0.09800
C291        C  0.15083508  0.68888134  0.60574912    -0.12400
C292        C  0.15892216  0.64958089  0.62814897    -0.12400
C293        C  0.10318856  0.62302771  0.63217429     0.09800
C294        C  0.03877068  0.63692809  0.61599612    -0.12400
H295        H  0.97971649  0.68572320  0.58282273     0.13700
H296        H  0.19485116  0.70849406  0.60675178     0.13700
H297        H  0.20872421  0.64046582  0.64455508     0.13700
H298        H  0.99454812  0.61765990  0.62229659     0.13700
C299        C  0.32156065  0.72092555  0.97808902    -0.15500
C300        C  0.01141052  0.75040960  0.52022075    -0.30700
H301        H  0.34856671  0.69414593  0.96317584     0.13500
H302        H  0.99027377  0.77460610  0.03948983     0.14100
C303        C  0.20473573  0.73919311  0.00465926    -0.15500
C304        C  0.13207371  0.74729011  0.49497076    -0.30700
H305        H  0.22698540  0.73859024  0.05110024     0.13500
H306        H  0.11371695  0.73893927  0.44805822     0.14100
C307        C  0.02710627  0.86145226  0.61494913    -0.12400
C308        C  0.07305100  0.85417587  0.66541395     0.09800
C309        C  0.11311923  0.88725845  0.68849816    -0.12400
C310        C  0.10450445  0.92648379  0.66366926    -0.12400
C311        C  0.05455741  0.93306901  0.61708797     0.09800
C312        C  0.01738179  0.90024618  0.59201241    -0.12400
H313        H  0.41835136  0.83434664  0.56178233     0.13700
H314        H  0.14839255  0.88363281  0.72752294     0.13700
H315        H  0.13464663  0.95171807  0.68235293     0.13700
H316        H  0.41463441  0.90034955  0.51673848     0.13700
C317        C  0.18285113  0.80443723  0.74651790    -0.15500
C318        C  0.11615284  0.80724049  0.75499135    -0.30700
H319        H  0.19836577  0.80415337  0.69784753     0.13500
H320        H  0.09869020  0.80456948  0.80256799     0.14100
C321        C  0.99485229  0.81770373  0.72943640    -0.15500
C322        C  0.30197073  0.78993150  0.76575467    -0.30700
H323        H  0.96725663  0.84568266  0.72081219     0.13500
H324        H  0.32718544  0.76186240  0.77805988     0.14100
C325        C  0.06271366  0.77751132  0.65507328    -0.15500
C326        C  0.09549109  0.77698868  0.59963096    -0.30700
H327        H  0.02774283  0.75261273  0.66477222     0.13500
H328        H  0.13078718  0.80156616  0.58932120     0.14100
C329        C  0.40509188  0.80961215  0.19740971    -0.01500
C330        C  0.42299709  0.73712564  0.05020603    -0.01500
C331        C  0.58364846  0.80013907  0.29358554    -0.01500
C332        C  0.58696766  0.72232366  0.43636752    -0.01500
C333        C  0.40153606  0.23721396  0.18472546    -0.01500
C334        C  0.40304380  0.30522260  0.03346331    -0.01500
C335        C  0.57137954  0.22370009  0.28408917    -0.01500
C336        C  0.55744823  0.29713483  0.43033044    -0.01500
O337        O  0.46715408  0.47061768  0.30370282    -0.73500
O338        O  0.42283856  0.56101800  0.19809209    -0.73500
O339        O  0.41266444  0.47822521  0.18858148    -0.73600
O340        O  0.47872228  0.55382174  0.31366143    -0.73600
O341        O  0.58145307  0.55245498  0.27257285    -0.73500
O342        O  0.51653827  0.47650979  0.14996995    -0.73500
O343        O  0.52611089  0.55968706  0.15835078    -0.73500
O344        O  0.57111382  0.46923728  0.26554478    -0.73600
Ni345      Ni  0.44172464  0.51605022  0.25255422     1.25400
Ni346      Ni  0.55243249  0.51436608  0.21006688     1.25400
C347        C  0.52489206  0.45379496  0.29989943     0.88700
C348        C  0.46820974  0.57638048  0.16303332     0.88600
C349        C  0.45568827  0.46286190  0.15184787     0.88700
C350        C  0.53968044  0.56741988  0.31074370     0.88800
O351        O  0.40939609  0.06359974  0.02751546    -0.73500
O352        O  0.35708207  0.97879910  0.42018742    -0.73500
O353        O  0.35145631  0.06159807  0.41465095    -0.73600
O354        O  0.41543067  0.98040856  0.03086482    -0.73600
O355        O  0.66217870  0.97969243  0.07531895    -0.73500
O356        O  0.58715359  0.05466837  0.44890246    -0.73500
O357        O  0.59244896  0.97208687  0.45664857    -0.73500
O358        O  0.66207321  0.06244116  0.07772727    -0.73600
Ni359      Ni  0.38932970  0.02331131  0.47205881     1.25400
Ni360      Ni  0.61484736  0.01675326  0.51154912     1.25400
C361        C  0.36632975  0.07749198  0.06566412     0.88700
C362        C  0.63684792  0.95656020  0.42153488     0.88600
C363        C  0.62902790  0.06931117  0.40971605     0.88700
C364        C  0.37383095  0.96368071  0.06831574     0.88800
C365        C  0.60564518  0.36723185  0.39180677    -0.12400
C366        C  0.55129456  0.33873025  0.39563879     0.09800
C367        C  0.49145912  0.34775271  0.36112580    -0.12400
C368        C  0.48284109  0.38547167  0.33213729    -0.12400
C369        C  0.53555107  0.41451566  0.33236284     0.09800
C370        C  0.59785567  0.40451359  0.36050581    -0.12400
H371        H  0.65507382  0.36088587  0.41148447     0.13700
H372        H  0.45024733  0.32569365  0.35782750     0.13700
H373        H  0.43513674  0.39160961  0.30813745     0.13700
H374        H  0.64028471  0.42569873  0.35896093     0.13700
C375        C  0.63803575  0.15586359  0.29434167    -0.12400
C376        C  0.58626442  0.18174913  0.31495832     0.09800
C377        C  0.54363048  0.16602943  0.36186014    -0.12400
C378        C  0.55505900  0.12840305  0.38966351    -0.12400
C379        C  0.60972291  0.10488076  0.37189748     0.09800
C380        C  0.65033416  0.11857783  0.32321508    -0.12400
H381        H  0.66979753  0.16339164  0.25568029     0.13700
H382        H  0.49922906  0.18167313  0.37615976     0.13700
H383        H  0.52204212  0.11836787  0.42662680     0.13700
H384        H  0.35210297  0.10365228  0.31526023     0.13700
C385        C  0.58030188  0.25866813  0.33135759    -0.15500
C386        C  0.54270762  0.26364220  0.38222579    -0.30700
H387        H  0.62024109  0.28122081  0.32444506     0.13500
H388        H  0.49837198  0.24454513  0.38813054     0.14100
C389        C  0.37500112  0.41560712  0.09324949    -0.12400
C390        C  0.43941514  0.42487709  0.11861496     0.09800
C391        C  0.48785142  0.39454422  0.12208318    -0.12400
C392        C  0.47343619  0.35607164  0.09878189    -0.12400
C393        C  0.41208938  0.34709150  0.06615289     0.09800
C394        C  0.36145258  0.37701719  0.06715770    -0.12400
H395        H  0.33537537  0.43795069  0.09395927     0.13700
H396        H  0.53598274  0.39986658  0.14640387     0.13700
H397        H  0.51004091  0.33306416  0.10934594     0.13700
H398        H  0.31092596  0.37075452  0.04970672     0.13700
C399        C  0.62854929  0.29079017  0.46035479    -0.15500
C400        C  0.33180861  0.29700705  0.00583404    -0.30700
H401        H  0.66098857  0.26806672  0.44023537     0.13500
H402        H  0.30169453  0.27207716  0.02458664     0.14100
C403        C  0.45211788  0.30294752  0.97910481    -0.15500
C404        C  0.50632035  0.28982422  0.48234896    -0.30700
H405        H  0.43181115  0.30287278  0.93111914     0.13500
H406        H  0.51596813  0.26281684  0.50969191     0.14100
C407        C  0.44233338  0.12943856  0.11937633    -0.12400
C408        C  0.37849817  0.11694291  0.09637556     0.09800
C409        C  0.32559576  0.14456256  0.09564798    -0.12400
C410        C  0.33515201  0.18338427  0.12016805    -0.12400
C411        C  0.39629423  0.19516772  0.15109409     0.09800
C412        C  0.45129554  0.16812542  0.14638000    -0.12400
H413        H  0.48500509  0.10932088  0.11672388     0.13700
H414        H  0.27724747  0.13671052  0.07333367     0.13700
H415        H  0.29476190  0.20433384  0.11215607     0.13700
H416        H  0.50191732  0.17643077  0.16202161     0.13700
C417        C  0.47203573  0.24614375  0.21356057    -0.15500
C418        C  0.49890393  0.22134260  0.25771006    -0.30700
H419        H  0.50086417  0.27259129  0.19825005     0.15700
H420        H  0.46790772  0.19520348  0.27055737     0.14100
C421        C  0.35219949  0.23884330  0.23945600    -0.15500
C422        C  0.61968148  0.23274898  0.23072301    -0.30700
H423        H  0.37285025  0.23968466  0.28732491     0.13500
H424        H  0.59892025  0.23519121  0.18362049     0.14100
C425        C  0.38537140  0.26992315  0.13656358    -0.15500
C426        C  0.41819647  0.27234174  0.08175741    -0.30700
H427        H  0.34546047  0.29135576  0.14570014     0.13500
H428        H  0.45787885  0.25074333  0.07270660     0.14100
C429        C  0.60398930  0.67324986  0.34324111    -0.12400
C430        C  0.57731926  0.68118320  0.40280569     0.09800
C431        C  0.54857180  0.64819855  0.43576559    -0.12400
C432        C  0.53715552  0.61057323  0.40683475    -0.12400
C433        C  0.55977279  0.60401936  0.34610938     0.09800
C434        C  0.59553163  0.63502517  0.31544802    -0.12400
H435        H  0.63190001  0.69617660  0.31797471     0.13700
H436        H  0.53468011  0.65170429  0.48414999     0.13700
H437        H  0.51088324  0.58665060  0.43180048     0.13700
H438        H  0.61425633  0.63028560  0.26860125     0.13700
C439        C  0.65914204  0.85122393  0.35659251    -0.12400
C440        C  0.59452049  0.84095400  0.33038764     0.09800
C441        C  0.54262163  0.86957211  0.33840431    -0.12400
C442        C  0.55593070  0.90725238  0.36762453    -0.12400
C443        C  0.62151465  0.91770203  0.38896398     0.09800
C444        C  0.67254518  0.88913567  0.38392322    -0.12400
H445        H  0.36443727  0.84267230  0.33953144     0.13700
H446        H  0.49147188  0.86374150  0.32240210     0.13700
H447        H  0.51509144  0.92846369  0.37279898     0.13700
H448        H  0.38662180  0.90849949  0.38219825     0.13700
C449        C  0.56473252  0.76665255  0.34017438    -0.15500
C450        C  0.60461216  0.75660622  0.39052158    -0.30700
H451        H  0.51807479  0.74941511  0.33182427     0.13500
H452        H  0.65231136  0.77279199  0.39800568     0.14100
C453        C  0.37907078  0.66503181  0.08466552    -0.12400
C454        C  0.43178505  0.69463587  0.08145180     0.09800
C455        C  0.49450505  0.68453598  0.11028683    -0.12400
C456        C  0.50689021  0.64552230  0.13293494    -0.12400
C457        C  0.45559928  0.61578238  0.13202554     0.09800
C458        C  0.39095698  0.62621669  0.10954080    -0.12400
H459        H  0.32793356  0.67143806  0.06948880     0.13700
H460        H  0.53417696  0.70690253  0.11762370     0.13700
H461        H  0.55592747  0.63921561  0.15421236     0.13700
H462        H  0.34947653  0.60438318  0.11148092     0.13700
C463        C  0.64804074  0.71610189  0.48136394    -0.15500
C464        C  0.35175472  0.74459272  0.02323369    -0.30700
H465        H  0.67886980  0.68971372  0.47200237     0.13500
H466        H  0.38924603  0.77231388  0.47853228     0.14100
C467        C  0.51906665  0.73274476  0.46603946    -0.15500
C468        C  0.46924675  0.74171755  0.99327082    -0.30700
H469        H  0.47770037  0.73855091  0.43309713     0.13500
H470        H  0.44660188  0.74078140  0.94622110     0.14100
C471        C  0.36101230  0.85387092  0.10910511    -0.12400
C472        C  0.41061823  0.84874649  0.15732004     0.09800
C473        C  0.45381688  0.88231307  0.17217661    -0.12400
C474        C  0.44436392  0.92010071  0.14219007    -0.12400
C475        C  0.39082845  0.92487611  0.09832583     0.09800
C476        C  0.35080361  0.89123930  0.08092359    -0.12400
H477        H  0.65128387  0.83581814  0.10486353     0.13700
H478        H  0.49247739  0.88032876  0.20868510     0.13700
H479        H  0.47657091  0.94584803  0.15525188     0.13700
H480        H  0.63790964  0.90261919  0.06126565     0.13700
C481        C  0.52838400  0.80330889  0.24006667    -0.15500
C482        C  0.46071746  0.80513273  0.24944702    -0.30700
H483        H  0.54466984  0.80375149  0.19166263     0.13500
H484        H  0.44443686  0.80275882  0.29757969     0.14100
C485        C  0.33558324  0.81407702  0.22837082    -0.15500
C486        C  0.64992261  0.78793941  0.26158452    -0.30700
H487        H  0.30812986  0.84187679  0.21827940     0.13500
H488        H  0.66876619  0.75720233  0.26566027     0.14100
C489        C  0.40305815  0.77224440  0.15399561    -0.15500
C490        C  0.43861296  0.76980645  0.10024532    -0.30700
H491        H  0.36399153  0.74927489  0.16168322     0.13500
H492        H  0.47689599  0.79290170  0.09080273     0.14100
C493        C  0.39664464  0.81183603  0.69072046    -0.01500
C494        C  0.43427452  0.73326313  0.55581092    -0.01500
C495        C  0.56381356  0.81047870  0.80352495    -0.01500
C496        C  0.58201343  0.73051687  0.94179649    -0.01500
C497        C  0.40229483  0.23817983  0.69691643    -0.01500
C498        C  0.39941014  0.30607981  0.54517019    -0.01500
C499        C  0.57622322  0.22779118  0.79104501    -0.01500
C500        C  0.56693764  0.30876832  0.93149593    -0.01500
O501        O  0.44869294  0.47936106  0.82173490    -0.73500
O502        O  0.38631427  0.55956898  0.70576869    -0.73500
O503        O  0.38855066  0.47648139  0.70773573    -0.73600
O504        O  0.44803131  0.56277376  0.81901375    -0.73600
O505        O  0.54809256  0.56413917  0.77284582    -0.73500
O506        O  0.49025498  0.47842714  0.66447592    -0.73500
O507        O  0.48672925  0.56022421  0.65984916    -0.73500
O508        O  0.54986236  0.48073358  0.77733736    -0.73600
Ni509      Ni  0.41416840  0.51955350  0.76524931     1.25400
Ni510      Ni  0.52231253  0.52097478  0.71719524     1.25400
C511        C  0.50794673  0.46512732  0.81577143     0.88700
C512        C  0.42724767  0.57418525  0.66579496     0.88600
C513        C  0.43188864  0.46198793  0.67026938     0.88700
C514        C  0.50683333  0.57892081  0.81175315     0.88800
O515        O  0.41363175  0.06769597  0.52802816    -0.73500
O516        O  0.35254319  0.97614152  0.91811730    -0.73500
O517        O  0.34756447  0.05962609  0.91417808    -0.73600
O518        O  0.42092751  0.98464518  0.53194420    -0.73600
O519        O  0.65029254  0.97879299  0.57104611    -0.73500
O520        O  0.60053851  0.06312047  0.96542735    -0.73500
O521        O  0.59808194  0.98059734  0.96404435    -0.73500
O522        O  0.64340626  0.06180571  0.56283968    -0.73600
Ni523      Ni  0.38482891  0.02003869  0.97096435     1.25400
Ni524      Ni  0.62737163  0.02146184  0.02250033     1.25400
C525        C  0.37054878  0.08154176  0.56637353     0.88700
C526        C  0.63946573  0.96470095  0.92644000     0.88600
C527        C  0.64104306  0.07720017  0.92451439     0.88700
C528        C  0.38139970  0.96896523  0.57212819     0.88800
C529        C  0.55776313  0.38603272  0.93595166    -0.12400
C530        C  0.54978283  0.34970118  0.90028394     0.09800
C531        C  0.52573458  0.35286225  0.83759445    -0.12400
C532        C  0.51388224  0.39079927  0.81090699    -0.12400
C533        C  0.52398306  0.42647329  0.84609714     0.09800
C534        C  0.54467968  0.42404626  0.90918254    -0.12400
H535        H  0.57457953  0.38482850  0.98477222     0.13700
H536        H  0.51512099  0.32645435  0.80860755     0.13700
H537        H  0.49546545  0.39229558  0.76268712     0.13700
H538        H  0.55103518  0.45136063  0.93740537     0.13700
C539        C  0.64468961  0.16076225  0.80375682    -0.12400
C540        C  0.59375263  0.18716383  0.82458804     0.09800
C541        C  0.55427997  0.17317504  0.87501080    -0.12400
C542        C  0.56811507  0.13689189  0.90583251    -0.12400
C543        C  0.62159831  0.11281808  0.88713314     0.09800
C544        C  0.65921011  0.12475383  0.83536943    -0.12400
H545        H  0.67370937  0.16662250  0.76260460     0.13700
H546        H  0.50993214  0.18880922  0.88945091     0.13700
H547        H  0.53723857  0.12801216  0.94501020     0.13700
H548        H  0.33769339  0.10158690  0.81008058     0.13700
C549        C  0.58937372  0.26461177  0.83523792    -0.15500
C550        C  0.55538934  0.27168379  0.88819880    -0.30700
H551        H  0.62765426  0.28710949  0.82290298     0.13500
H552        H  0.51443902  0.25127558  0.89963405     0.14100
C553        C  0.35516149  0.41073319  0.61582383    -0.12400
C554        C  0.41940150  0.42331490  0.63789651     0.09800
C555        C  0.47444702  0.39747469  0.63202812    -0.12400
C556        C  0.46598658  0.35962108  0.60470331    -0.12400
C557        C  0.40274418  0.34696817  0.57947080     0.09800
C558        C  0.34693957  0.37302289  0.58567503    -0.12400
H559        H  0.31202412  0.43027083  0.62072403     0.13700
H560        H  0.52436501  0.40619243  0.64998307     0.13700
H561        H  0.50962560  0.34025570  0.60180620     0.13700
H562        H  0.29713691  0.36476129  0.56740026     0.13700
C563        C  0.64102172  0.31219206  0.95492943    -0.15500
C564        C  0.32766344  0.29631667  0.51954671    -0.30700
H565        H  0.67238774  0.33559401  0.93351529     0.13500
H566        H  0.29094953  0.29048759  0.55530725     0.14100
C567        C  0.44996559  0.31144579  0.49199263    -0.15500
C568        C  0.51996191  0.30363609  0.98659310    -0.30700
H569        H  0.44017624  0.33793354  0.46362185     0.13500
H570        H  0.54187996  0.30076818  0.03300357     0.14100
C571        C  0.44642866  0.13324073  0.62252003    -0.12400
C572        C  0.38264934  0.12040539  0.59946427     0.09800
C573        C  0.32796571  0.14644444  0.60453557    -0.12400
C574        C  0.33588847  0.18407380  0.63338990    -0.12400
C575        C  0.39769748  0.19636229  0.66260373     0.09800
C576        C  0.45391218  0.17070836  0.65411848    -0.12400
H577        H  0.49004863  0.11422020  0.61677622     0.13700
H578        H  0.27892478  0.13830138  0.58387932     0.13700
H579        H  0.29318021  0.20370516  0.63041531     0.13700
H580        H  0.50422609  0.17941929  0.67015889     0.13700
C581        C  0.47262620  0.24821466  0.72514486    -0.15500
C582        C  0.50202185  0.22426848  0.76907999    -0.30700
H583        H  0.50005259  0.27497607  0.70889255     0.15700
H584        H  0.47294819  0.19762811  0.78322428     0.14100
C585        C  0.35326825  0.23918266  0.75168700    -0.15500
C586        C  0.61859268  0.23430410  0.73243899    -0.30700
H587        H  0.37404343  0.23740398  0.79940357     0.13500
H588        H  0.59337086  0.23522587  0.68711362     0.14100
C589        C  0.38501909  0.27080301  0.64897893    -0.15500
C590        C  0.41721575  0.27353933  0.59376696    -0.30700
H591        H  0.34498837  0.29198257  0.65884139     0.13500
H592        H  0.45671982  0.25199432  0.58608933     0.14100
C593        C  0.58819264  0.68106064  0.84928987    -0.12400
C594        C  0.55887458  0.69129788  0.90681780     0.09800
C595        C  0.51557084  0.66200590  0.93429700    -0.12400
C596        C  0.49814132  0.62574586  0.90342720    -0.12400
C597        C  0.52643438  0.61648878  0.84576968     0.09800
C598        C  0.57214221  0.64425480  0.81917657    -0.12400
H599        H  0.62453214  0.70134226  0.82798729     0.13700
H600        H  0.49611810  0.66599230  0.98055624     0.13700
H601        H  0.46378861  0.60445825  0.92546357     0.13700
H602        H  0.59490855  0.63776249  0.77454585     0.13700
C603        C  0.64930919  0.85976528  0.85869573    -0.12400
C604        C  0.58208590  0.85060080  0.83902377     0.09800
C605        C  0.53262679  0.87977361  0.85183128    -0.12400
C606        C  0.55089773  0.91752564  0.87866395    -0.12400
C607        C  0.61907834  0.92697498  0.89318695     0.09800
C608        C  0.66774562  0.89748013  0.88373481    -0.12400
H609        H  0.36021428  0.83873292  0.84101911     0.13700
H610        H  0.47996109  0.87353386  0.84040443     0.13700
H611        H  0.51185299  0.93931621  0.88794351     0.13700
H612        H  0.38206751  0.90463112  0.88564217     0.13700
C613        C  0.54374989  0.77843317  0.85274766    -0.15500
C614        C  0.58941904  0.76660772  0.89712625    -0.30700
H615        H  0.49448916  0.76376446  0.85167781     0.13500
H616        H  0.63888144  0.78128971  0.89673679     0.14100
C617        C  0.41643733  0.65662716  0.54477277    -0.12400
C618        C  0.41915537  0.69118685  0.58447857     0.09800
C619        C  0.41162134  0.68501773  0.64966808    -0.12400
C620        C  0.40549231  0.64613763  0.67402749    -0.12400
C621        C  0.41087260  0.61229360  0.63497149     0.09800
C622        C  0.41518308  0.61739800  0.56998530    -0.12400
H623        H  0.41906029  0.66019465  0.49431892     0.13700
H624        H  0.41401067  0.70938011  0.68356650     0.13700
H625        H  0.40339233  0.64249711  0.72461319     0.13700
H626        H  0.41979773  0.59131997  0.53928323     0.13700
C627        C  0.65265106  0.72201858  0.96826888    -0.15500
C628        C  0.37833264  0.74603598  0.50728053    -0.30700
H629        H  0.67738355  0.69408188  0.95479810     0.13500
H630        H  0.32580418  0.77157801  0.03825752     0.14100
C631        C  0.53691360  0.74090395  0.99721169    -0.15500
C632        C  0.50497978  0.72966048  0.52755267    -0.30700
H633        H  0.56023218  0.74438813  0.04322027     0.13500
H634        H  0.54540190  0.72130001  0.56024572     0.14100
C635        C  0.41648632  0.85931688  0.59439879    -0.12400
C636        C  0.41069273  0.85399166  0.66010402     0.09800
C637        C  0.40783492  0.88962397  0.69756804    -0.12400
C638        C  0.40122339  0.92804928  0.66997207    -0.12400
C639        C  0.40245706  0.93193106  0.60460799     0.09800
C640        C  0.41391686  0.89776931  0.56754066    -0.12400
H641        H  0.65651557  0.83255645  0.59491813     0.13700
H642        H  0.40419537  0.88722916  0.74806296     0.13700
H643        H  0.39253820  0.95432643  0.69929596     0.13700
H644        H  0.64670911  0.89713430  0.54296423     0.13700
C645        C  0.50923884  0.81989334  0.75257449    -0.15500
C646        C  0.45080746  0.79923395  0.74014452    -0.30700
H647        H  0.52048705  0.84608036  0.72357739     0.13500
H648        H  0.44118199  0.77098853  0.76442926     0.14100
C649        C  0.32866258  0.81561483  0.72266751    -0.15500
C650        C  0.62561344  0.79510590  0.76805656    -0.30700
H651        H  0.30013978  0.84301370  0.71268747     0.13500
H652        H  0.64638641  0.76543032  0.77833848     0.14100
C653        C  0.38892531  0.77839049  0.64113881    -0.15500
C654        C  0.44107840  0.76627552  0.60629653    -0.30700
H655        H  0.33979838  0.76359320  0.63349080     0.13500
H656        H  0.48997568  0.78130866  0.61443117     0.14100
C657        C  0.74621820  0.80850492  0.18651733    -0.01500
C658        C  0.75363591  0.73691281  0.03967813    -0.01500
C659        C  0.89941927  0.81220961  0.31312805    -0.01500
C660        C  0.91048191  0.73020989  0.44939751    -0.01500
C661        C  0.73971616  0.23972748  0.18995557    -0.01500
C662        C  0.73826008  0.30425542  0.03264905    -0.01500
C663        C  0.90742301  0.23118210  0.29498290    -0.01500
C664        C  0.89311771  0.31304573  0.43384163    -0.01500
O665        O  0.77484935  0.48049136  0.30893396    -0.73500
O666        O  0.73204509  0.56320922  0.18966285    -0.73500
O667        O  0.72730722  0.47958047  0.18997732    -0.73600
O668        O  0.78071389  0.56424887  0.30874502    -0.73600
O669        O  0.88583016  0.56288885  0.27360154    -0.73500
O670        O  0.83280505  0.47871647  0.15578177    -0.73500
O671        O  0.83790171  0.56158457  0.15580584    -0.73500
O672        O  0.88069380  0.47937213  0.27469084    -0.73600
Ni673      Ni  0.74989946  0.52193855  0.25061835     1.25400
Ni674      Ni  0.86298466  0.52050954  0.21381984     1.25400
C675        C  0.83373520  0.46508095  0.30882909     0.88700
C676        C  0.77947491  0.57764349  0.15613570     0.88600
C677        C  0.77216499  0.46422807  0.15471957     0.88700
C678        C  0.84140483  0.57889634  0.30845287     0.88800
O679        O  0.76200473  0.06576005  0.03129579    -0.73500
O680        O  0.69598132  0.97286391  0.41735054    -0.73500
O681        O  0.68931619  0.05587756  0.40683361    -0.73600
O682        O  0.76440795  0.98226262  0.03302154    -0.73600
O683        O  0.98187630  0.98291355  0.07578826    -0.73500
O684        O  0.92341125  0.06599053  0.47199315    -0.73500
O685        O  0.92286632  0.98270168  0.47899972    -0.73500
O686        O  0.97772982  0.06643008  0.06957665    -0.73600
Ni687      Ni  0.72505011  0.01876019  0.46786630     1.25400
Ni688      Ni  0.94854867  0.02655402  0.53416005     1.25400
C689        C  0.71955194  0.07976726  0.07009024     0.88700
C690        C  0.96594380  0.96625559  0.44348143     0.88600
C691        C  0.96592826  0.07991354  0.43258519     0.88700
C692        C  0.72155027  0.96544072  0.06894043     0.88800
C693        C  0.89010874  0.39025738  0.43113572    -0.12400
C694        C  0.87638091  0.35285323  0.39981604     0.09800
C695        C  0.84343072  0.35377472  0.34030116    -0.12400
C696        C  0.82830534  0.39074285  0.31199635    -0.12400
C697        C  0.84543341  0.42737528  0.34238860     0.09800
C698        C  0.87584333  0.42721413  0.40216578    -0.12400
H699        H  0.91286389  0.39074648  0.47800210     0.13700
H700        H  0.82803629  0.32627875  0.31560808     0.13700
H701        H  0.80383926  0.39081783  0.26581264     0.13700
H702        H  0.88869130  0.45550841  0.42612061     0.13700
C703        C  0.97606709  0.16419059  0.31166910    -0.12400
C704        C  0.92352459  0.19042449  0.32956750     0.09800
C705        C  0.88131650  0.17616921  0.37792135    -0.12400
C706        C  0.89358723  0.13973998  0.40939847    -0.12400
C707        C  0.94819387  0.11557270  0.39354793     0.09800
C708        C  0.98882498  0.12791603  0.34384718    -0.12400
H709        H  0.00788427  0.17057549  0.27250854     0.13700
H710        H  0.83620391  0.19183348  0.39017580     0.13700
H711        H  0.86053936  0.13084208  0.44699667     0.13700
H712        H  0.69234021  0.10065691  0.30780676     0.13700
C713        C  0.91781077  0.26819224  0.33938339    -0.15500
C714        C  0.88280601  0.27509842  0.39210619    -0.30700
H715        H  0.95535254  0.29117624  0.32726807     0.13500
H716        H  0.84259885  0.25437807  0.40434405     0.14100
C717        C  0.69929503  0.40261748  0.12634892    -0.12400
C718        C  0.75583538  0.42769368  0.11499803     0.09800
C719        C  0.80061696  0.41537401  0.06889425    -0.12400
C720        C  0.79246254  0.37765406  0.03878089    -0.12400
C721        C  0.74058977  0.34971817  0.05526146     0.09800
C722        C  0.69136691  0.36457990  0.09634611    -0.12400
H723        H  0.66256883  0.41160465  0.16038700     0.13700
H724        H  0.84356921  0.43449267  0.05716419     0.13700
H725        H  0.82905012  0.37088766  0.00413066     0.13700
H726        H  0.64667668  0.34665528  0.10616937     0.13700
C727        C  0.96722105  0.31673033  0.45772146    -0.15500
C728        C  0.66791419  0.29288158  0.00564534    -0.30700
H729        H  0.99898838  0.33900989  0.43417171     0.13500
H730        H  0.63915681  0.26877446  0.02802173     0.14100
C731        C  0.78838807  0.29533753  0.98048572    -0.15500
C732        C  0.84430916  0.31038235  0.48799870    -0.30700
H733        H  0.76911639  0.28509831  0.93485625     0.13500
H734        H  0.86479324  0.30963801  0.53558661     0.14100
C735        C  0.79140667  0.13256620  0.12837306    -0.12400
C736        C  0.73031450  0.11971212  0.09969003     0.09800
C737        C  0.67702353  0.14691502  0.09439201    -0.12400
C738        C  0.68301738  0.18560832  0.11964907    -0.12400
C739        C  0.74052036  0.19791495  0.15569092     0.09800
C740        C  0.79654945  0.17132509  0.15631302    -0.12400
H741        H  0.83439585  0.11257143  0.13009673     0.13700
H742        H  0.63086706  0.13863331  0.06854946     0.13700
H743        H  0.64254942  0.20611043  0.10879402     0.13700
H744        H  0.84474152  0.17984321  0.17751067     0.13700
C745        C  0.80735858  0.25106395  0.22301959    -0.15500
C746        C  0.83421675  0.22780245  0.26964061    -0.30700
H747        H  0.83508566  0.27794700  0.20775527     0.15700
H748        H  0.80460109  0.20118475  0.28288932     0.14100
C749        C  0.68680538  0.23837175  0.24114637    -0.15500
C750        C  0.95259569  0.23768307  0.23785654    -0.30700
H751        H  0.70447901  0.23880766  0.28997496     0.13500
H752        H  0.92917974  0.23790768  0.19176619     0.14100
C753        C  0.72194287  0.27234710  0.14151086    -0.15500
C754        C  0.75652962  0.27613166  0.08792328    -0.30700
H755        H  0.67711684  0.28997873  0.14826024     0.13500
H756        H  0.79952725  0.25623586  0.08315609     0.14100
C757        C  0.92624591  0.67923438  0.35896127    -0.12400
C758        C  0.89034071  0.69039495  0.41276486     0.09800
C759        C  0.84044399  0.66231563  0.43346851    -0.12400
C760        C  0.82434489  0.62650679  0.39980044    -0.12400
C761        C  0.85981244  0.61611735  0.34600742     0.09800
C762        C  0.91149416  0.64277482  0.32641501    -0.12400
H763        H  0.96643239  0.69878892  0.34217208     0.13700
H764        H  0.81424587  0.66681186  0.47658290     0.13700
H765        H  0.78487778  0.60644155  0.41674070     0.13700
H766        H  0.93984189  0.63583681  0.28494569     0.13700
C767        C  0.98483712  0.86838683  0.35343829    -0.12400
C768        C  0.91894712  0.85112925  0.35186193     0.09800
C769        C  0.86962401  0.87135336  0.38652842    -0.12400
C770        C  0.88380103  0.90913962  0.41524043    -0.12400
C771        C  0.94836405  0.92739891  0.41113432     0.09800
C772        C  0.99883446  0.90604502  0.38105796    -0.12400
H773        H  0.70070688  0.83032530  0.35458039     0.13700
H774        H  0.81955567  0.85806595  0.39008180     0.13700
H775        H  0.84428130  0.92397666  0.44060592     0.13700
H776        H  0.72276405  0.89593142  0.40265890     0.13700
C777        C  0.87760461  0.77869367  0.35901809    -0.15500
C778        C  0.92056021  0.76637344  0.40493845    -0.30700
H779        H  0.82809536  0.76412191  0.35381369     0.13500
H780        H  0.96958225  0.78195022  0.40698425     0.14100
C781        C  0.69972306  0.66812403  0.07686065    -0.12400
C782        C  0.75621931  0.69499157  0.07247263     0.09800
C783        C  0.81733106  0.68274230  0.10171524    -0.12400
C784        C  0.82507358  0.64368287  0.12438664    -0.12400
C785        C  0.77039245  0.61633671  0.12378457     0.09800
C786        C  0.70696005  0.62911433  0.10196915    -0.12400
H787        H  0.64932899  0.67683784  0.06263943     0.13700
H788        H  0.85966746  0.70314465  0.10873605     0.13700
H789        H  0.87343462  0.63558928  0.14556200     0.13700
H790        H  0.66310397  0.60912671  0.10483396     0.13700
C791        C  0.98065368  0.72350061  0.47962461    -0.15500
C792        C  0.68489705  0.74668962  0.01036267    -0.30700
H793        H  0.00726990  0.69584915  0.46822396     0.13500
H794        H  0.64456970  0.76916405  0.53638557     0.14100
C795        C  0.86183706  0.74039358  0.50300109    -0.15500
C796        C  0.80406074  0.73865017  0.98590713    -0.30700
H797        H  0.88394791  0.74483823  0.54921545     0.13500
H798        H  0.78511553  0.73402237  0.93806735     0.14100
C799        C  0.69313614  0.85732986  0.11034920    -0.12400
C800        C  0.75109927  0.84764804  0.14709027     0.09800
C801        C  0.80564009  0.87595426  0.14918214    -0.12400
C802        C  0.79763621  0.91487840  0.12314643    -0.12400
C803        C  0.73535530  0.92543680  0.09521001     0.09800
C804        C  0.68475872  0.89582587  0.08636532    -0.12400
H805        H  0.99196508  0.83547755  0.09864820     0.13700
H806        H  0.85338245  0.86894857  0.17192466     0.13700
H807        H  0.83879507  0.93695323  0.12665405     0.13700
H808        H  0.98157067  0.89986261  0.04627811     0.13700
C809        C  0.83851018  0.82295198  0.26984214    -0.15500
C810        C  0.80964693  0.79779645  0.22649236    -0.30700
H811        H  0.81606796  0.85270196  0.27475739     0.13500
H812        H  0.83197423  0.76807845  0.22031445     0.14100
C813        C  0.68452880  0.81544125  0.22768027    -0.15500
C814        C  0.96024548  0.79673731  0.27452896    -0.30700
H815        H  0.66346788  0.84583848  0.22702431     0.13500
H816        H  0.98249535  0.76761426  0.28604019     0.14100
C817        C  0.73216451  0.77381501  0.14045890    -0.15500
C818        C  0.77028568  0.76909246  0.08919008    -0.30700
H819        H  0.68785803  0.75429388  0.14614236     0.13500
H820        H  0.81320081  0.78957888  0.08278007     0.14100
C821        C  0.72799097  0.81272327  0.69992717    -0.01500
C822        C  0.74524459  0.73711597  0.55452767    -0.01500
C823        C  0.90128876  0.80392175  0.80217867    -0.01500
C824        C  0.92347131  0.72841424  0.94695300    -0.01500
C825        C  0.73239986  0.23909158  0.67884586    -0.01500
C826        C  0.72769289  0.31366903  0.53341524    -0.01500
C827        C  0.89914279  0.22873637  0.78480206    -0.01500
C828        C  0.90749079  0.30102081  0.93731751    -0.01500
O829        O  0.80958673  0.47423310  0.81408581    -0.73500
O830        O  0.75709512  0.56194036  0.70628579    -0.73500
O831        O  0.75542725  0.47925937  0.69811278    -0.73600
O832        O  0.81244697  0.55764548  0.82212422    -0.73600
O833        O  0.91570276  0.55922926  0.78227054    -0.73500
O834        O  0.85980187  0.47992623  0.66027498    -0.73500
O835        O  0.86073714  0.56364114  0.66725731    -0.73500
O836        O  0.91386418  0.47563316  0.77665204    -0.73600
Ni837      Ni  0.78006387  0.51819617  0.76169714     1.25400
Ni838      Ni  0.89122437  0.51963322  0.72011823     1.25400
C839        C  0.86871185  0.45903642  0.81097435     0.88700
C840        C  0.80131303  0.57853204  0.67130207     0.88600
C841        C  0.79951676  0.46536197  0.66111474     0.88700
C842        C  0.87212942  0.57326215  0.81963685     0.88800
O843        O  0.74608091  0.06449985  0.52173700    -0.73500
O844        O  0.69990390  0.97909307  0.92133117    -0.73500
O845        O  0.69982308  0.06229644  0.91800474    -0.73600
O846        O  0.75388902  0.98142686  0.53162399    -0.73600
O847        O  0.98163388  0.98702118  0.59264711    -0.73500
O848        O  0.91861770  0.06144483  0.95617736    -0.73500
O849        O  0.92046827  0.97824568  0.96194491    -0.73500
O850        O  0.98044767  0.07024799  0.58634892    -0.73600
Ni851      Ni  0.73530960  0.02243399  0.97426793     1.25400
Ni852      Ni  0.94630079  0.02218440  0.01761190     1.25400
C853        C  0.70099445  0.07950509  0.55684369     0.88700
C854        C  0.96324973  0.96218178  0.92565780     0.88600
C855        C  0.96001973  0.07575565  0.91616455     0.88700
C856        C  0.71079902  0.96566045  0.56850933     0.88800
C857        C  0.95559175  0.37014623  0.89383094    -0.12400
C858        C  0.90073082  0.34242648  0.90176808     0.09800
C859        C  0.83767609  0.35373114  0.87505445    -0.12400
C860        C  0.82791336  0.39190583  0.84840186    -0.12400
C861        C  0.88162511  0.41984436  0.84341225     0.09800
C862        C  0.94621365  0.40817482  0.86467772    -0.12400
H863        H  0.00628208  0.36258553  0.90895026     0.13700
H864        H  0.79504446  0.33310676  0.87332757     0.13700
H865        H  0.77813653  0.39903054  0.82948782     0.13700
H866        H  0.98927225  0.42851347  0.85926223     0.13700
C867        C  0.97186739  0.16368400  0.80231877    -0.12400
C868        C  0.91560576  0.18756954  0.81776931     0.09800
C869        C  0.87008535  0.17067784  0.86127314    -0.12400
C870        C  0.88266061  0.13352430  0.89095184    -0.12400
C871        C  0.94096453  0.11158513  0.87780730     0.09800
C872        C  0.98472775  0.12680644  0.83243036    -0.12400
H873        H  0.00672018  0.17249711  0.76670003     0.13700
H874        H  0.82474053  0.18677502  0.87307598     0.13700
H875        H  0.84759411  0.12263915  0.92564768     0.13700
H876        H  0.70003171  0.10618218  0.81908715     0.13700
C877        C  0.89482486  0.26527961  0.82967380    -0.15500
C878        C  0.90006270  0.26402879  0.89340504    -0.30700
H879        H  0.88921495  0.29445149  0.80664255     0.13500
H880        H  0.90573833  0.23511631  0.91687972     0.14100
C881        C  0.73358940  0.42792972  0.57744122    -0.12400
C882        C  0.78334229  0.42865312  0.62511820     0.09800
C883        C  0.81536918  0.39279981  0.64287179    -0.12400
C884        C  0.79617838  0.35606675  0.61490371    -0.12400
C885        C  0.74475647  0.35410394  0.56768022     0.09800
C886        C  0.71604172  0.39122553  0.54755322    -0.12400
H887        H  0.70894122  0.45570220  0.56302699     0.13700
H888        H  0.85421714  0.39307293  0.67975864     0.13700
H889        H  0.82279322  0.32931529  0.62994733     0.13700
H890        H  0.67960370  0.39219964  0.50899597     0.13700
C891        C  0.97656338  0.29639910  0.97039235    -0.15500
C892        C  0.65313163  0.31314639  0.50972970    -0.30700
H893        H  0.00910226  0.27196058  0.95552925     0.13500
H894        H  0.61878359  0.33445761  0.53066210     0.14100
C895        C  0.77620411  0.31139141  0.47881529    -0.15500
C896        C  0.85574190  0.29858058  0.98964035    -0.30700
H897        H  0.75606636  0.31234873  0.43088129     0.13500
H898        H  0.87322566  0.30416920  0.03775563     0.14100
C899        C  0.77573281  0.13289151  0.60895110    -0.12400
C900        C  0.71203540  0.11960648  0.58659160     0.09800
C901        C  0.65809351  0.14659815  0.58732828    -0.12400
C902        C  0.66646716  0.18529377  0.61319876    -0.12400
C903        C  0.72773556  0.19757108  0.64342776     0.09800
C904        C  0.78367475  0.17141992  0.63677566    -0.12400
H905        H  0.81912176  0.11339859  0.60548842     0.13700
H906        H  0.60959650  0.13823169  0.56579364     0.13700
H907        H  0.62497719  0.20577218  0.60718953     0.13700
H908        H  0.83422401  0.18024313  0.65204133     0.13700
C909        C  0.80320910  0.24780217  0.70733594    -0.15500
C910        C  0.83042962  0.22274066  0.75144023    -0.30700
H911        H  0.83048610  0.27530351  0.69473524     0.15700
H912        H  0.80143779  0.19530391  0.76184796     0.14100
C913        C  0.68598792  0.23935711  0.73548924    -0.15500
C914        C  0.95079192  0.23972246  0.73486891    -0.30700
H915        H  0.70864418  0.24144320  0.78256255     0.13500
H916        H  0.93268838  0.24059752  0.68685045     0.14100
C917        C  0.71249516  0.27322789  0.63361095    -0.15500
C918        C  0.73989239  0.27709927  0.57644695    -0.30700
H919        H  0.67570216  0.29540643  0.64800977     0.13500
H920        H  0.77607604  0.25447037  0.56232751     0.14100
C921        C  0.94704788  0.67598034  0.86219693    -0.12400
C922        C  0.90816748  0.68743724  0.91379885     0.09800
C923        C  0.86190326  0.65835563  0.93738775    -0.12400
C924        C  0.85137375  0.62083451  0.90796846    -0.12400
C925        C  0.88892004  0.61037332  0.85578128     0.09800
C926        C  0.93769625  0.63797582  0.83370655    -0.12400
H927        H  0.98519159  0.69650866  0.84410500     0.13700
H928        H  0.83409005  0.66361928  0.97919923     0.13700
H929        H  0.81385142  0.59991827  0.92621958     0.13700
H930        H  0.96719542  0.63075269  0.79306269     0.13700
C931        C  0.97987162  0.85654868  0.85935829    -0.12400
C932        C  0.91413937  0.84603508  0.83578084     0.09800
C933        C  0.86332244  0.87516830  0.84456078    -0.12400
C934        C  0.87865781  0.91320681  0.87296747    -0.12400
C935        C  0.94533590  0.92347667  0.89248373     0.09800
C936        C  0.99534143  0.89449276  0.88559067    -0.12400
H937        H  0.68847612  0.83773642  0.85508839     0.13700
H938        H  0.81163683  0.86902460  0.82995691     0.13700
H939        H  0.83849634  0.93471673  0.87928544     0.13700
H940        H  0.71999446  0.90299477  0.89807723     0.13700
C941        C  0.88522458  0.77150373  0.85187602    -0.15500
C942        C  0.93006463  0.76297242  0.89933039    -0.30700
H943        H  0.83876812  0.75368421  0.84708100     0.13500
H944        H  0.97747704  0.77984587  0.90124666     0.14100
C945        C  0.81911324  0.68722595  0.61809615    -0.12400
C946        C  0.75612691  0.69545881  0.58825231     0.09800
C947        C  0.70542893  0.66461026  0.59213589    -0.12400
C948        C  0.72007616  0.62620774  0.61747498    -0.12400
C949        C  0.78552907  0.61748211  0.63995620     0.09800
C950        C  0.83437256  0.64865919  0.64106999    -0.12400
H951        H  0.85663083  0.71076076  0.62624595     0.13700
H952        H  0.65387292  0.66965496  0.57679358     0.13700
H953        H  0.68017438  0.60334613  0.61961734     0.13700
H954        H  0.88363317  0.64384827  0.66295491     0.13700
C955        C  0.99242956  0.72318972  0.98061912    -0.15500
C956        C  0.67312616  0.74219247  0.52569625    -0.30700
H957        H  0.02266368  0.69727189  0.96758610     0.13500
H958        H  0.66110800  0.77498851  0.02340282     0.14100
C959        C  0.87145067  0.73915097  0.99600480    -0.15500
C960        C  0.79364419  0.74109940  0.49794561    -0.30700
H961        H  0.88978209  0.74547024  0.04305661     0.13500
H962        H  0.77206759  0.73995631  0.45049947     0.14100
C963        C  0.69199192  0.85654711  0.60871429    -0.12400
C964        C  0.73845001  0.85108376  0.65937829     0.09800
C965        C  0.78230692  0.88402291  0.67607132    -0.12400
C966        C  0.77620708  0.92175346  0.64542402    -0.12400
C967        C  0.72540723  0.92694823  0.59910204     0.09800
C968        C  0.68520970  0.89382701  0.57972146    -0.12400
H969        H  0.99397916  0.83743003  0.59687394     0.13700
H970        H  0.81855922  0.88174028  0.71457525     0.13700
H971        H  0.80851196  0.94715591  0.65990311     0.13700
H972        H  0.97967092  0.90474837  0.55490759     0.13700
C973        C  0.84700936  0.80510988  0.74790558    -0.15500
C974        C  0.77991133  0.80784671  0.75493221    -0.30700
H975        H  0.86361214  0.80391144  0.69956745     0.13500
H976        H  0.76228349  0.80653772  0.80252270     0.14100
C977        C  0.65860432  0.81990560  0.72849119    -0.15500
C978        C  0.96610024  0.79151594  0.76953547    -0.30700
H979        H  0.63599326  0.84952072  0.72082031     0.13500
H980        H  0.99121849  0.76326068  0.78125427     0.14100
C981        C  0.72499487  0.77454477  0.65739590    -0.15500
C982        C  0.75896393  0.77133874  0.60267089    -0.30700
H983        H  0.68768224  0.75104171  0.66772436     0.13500
H984        H  0.79648018  0.79453605  0.59153170     0.14100
loop_ 
_geom_bond_atom_site_label_1 
_geom_bond_atom_site_label_2 
_geom_bond_distance 
_geom_bond_site_symmetry_2 
_ccdc_geom_bond_type 
C1          C144   1.548       .  S
C1          C154   1.564       .  S
C1          C157   1.563   1_455  S
C1          C161   1.545       .  S
C2          C126   1.557       .  S
C2          C136   1.535       .  S
C2          C140   1.558       .  S
C2          C162   1.541       .  S
C3          C112   1.562       .  S
C3          C121   1.545       .  S
C3          C153   1.572       .  S
C3          C158   1.557       .  S
C4          C102   1.546       .  S
C4          C122   1.546       .  S
C4          C135   1.546       .  S
C4          C139   1.544       .  S
C5           C83   1.564       .  S
C5           C89   1.538       .  S
C5           C93   1.541       .  S
C5           C97   1.537       .  S
C6           C65   1.539       .  S
C6           C72   1.527   1_455  S
C6           C75   1.518   1_554  S
C6           C98   1.541       .  S
C7           C48   1.563       .  S
C7           C57   1.545       .  S
C7           C90   1.531       .  S
C7           C94   1.539       .  S
C8           C38   1.547       .  S
C8           C58   1.538       .  S
C8           C71   1.545       .  S
C8           C76   1.543       .  S
O9          Ni17   1.912       .  S
O9           C19   1.280       .  A
O10         Ni17   1.911       .  S
O10          C20   1.278       .  A
O11         Ni17   1.912       .  S
O11          C21   1.280       .  A
O12         Ni17   1.923       .  S
O12          C22   1.284       .  A
O13         Ni18   1.904       .  S
O13          C22   1.278       .  A
O14         Ni18   1.908       .  S
O14          C21   1.278       .  A
O15         Ni18   1.923       .  S
O15          C20   1.284       .  A
O16         Ni18   1.926       .  S
O16          C19   1.283       .  A
Ni17        Ni18   2.392       .  S
C19          C41   1.475       .  S
C20         C129   1.471       .  S
C21          C62   1.456       .  S
C22         C105   1.476       .  S
O23        Ni195   1.932   1_554  S
O23          C33   1.284       .  A
O24         Ni31   1.923   1_565  S
O24         C690   1.285   1_455  A
O25         Ni31   1.916       .  S
O25         C691   1.281   1_455  A
O26        Ni195   1.921   1_564  S
O26          C36   1.279       .  A
O27        Ni196   1.916   1_565  S
O27         C364   1.283       .  A
O28         Ni32   1.925       .  S
O28          C35   1.284       .  A
O29         Ni32   1.914   1_565  S
O29          C34   1.279       .  A
O30        Ni196   1.903       .  S
O30         C361   1.280       .  A
Ni31        O187   1.919       .  S
Ni31        O190   1.909   1_545  S
Ni31       Ni688   2.391   1_455  S
Ni32        O191   1.924   1_545  S
Ni32        O194   1.899       .  S
Ni32       Ni359   2.390       .  S
C33         O686   1.281   1_455  A
C33          C80   1.479       .  S
C34         O352   1.285       .  A
C34         C115   1.480       .  S
C35         O353   1.279       .  A
C35          C51   1.478       .  S
C36         O683   1.283   1_455  A
C36         C147   1.471       .  S
C37          C38   1.421       .  A
C37          C42   1.401       .  A
C37          H43   1.081       .  S
C38          C39   1.410       .  A
C39          C40   1.396       .  A
C39          H44   1.081       .  S
C40          C41   1.403       .  A
C40          H45   1.084       .  S
C41          C42   1.398       .  A
C42          H46   1.083       .  S
C47          C48   1.418       .  A
C47          C52   1.394       .  A
C47          H53   1.074       .  S
C48          C49   1.420       .  A
C49          C50   1.399       .  A
C49          H54   1.076       .  S
C50          C51   1.399       .  A
C50          H55   1.083       .  S
C51          C52   1.400       .  A
C52         H384   1.084       .  S
H56         C708   1.083   1_455  S
C57          C58   1.353       .  D
C57          H59   1.087       .  S
C58          H60   1.075       .  S
C61          C62   1.395       .  A
C61          C66   1.398       .  A
C61          H67   1.083       .  S
C62          C63   1.397       .  A
C63          C64   1.390       .  A
C63          H68   1.084       .  S
C64          C65   1.409       .  A
C64          H69   1.076       .  S
C65          C66   1.417       .  A
C66          H70   1.081       .  S
C71         C564   1.357       .  D
C71          H73   1.084       .  S
C72         C891   1.353   1_554  D
C72          H74   1.087       .  S
C75         C240   1.338       .  D
C75          H77   1.087       .  S
C76         C239   1.353       .  D
C76          H78   1.082       .  S
C79          C80   1.400       .  A
C79          C84   1.406       .  A
C79          H85   1.083       .  S
C80          C81   1.400   1_455  A
C81          C82   1.393   1_655  A
C81          H86   1.084       .  S
C82          C83   1.411       .  A
C82          H87   1.076   1_455  S
C83          C84   1.424       .  A
C84          H88   1.078       .  S
C89          C90   1.356       .  D
C89          H91   1.083       .  S
C90          H92   1.087       .  S
C93         C750   1.343   1_455  D
C93          H95   1.088       .  S
C94         C421   1.349       .  D
C94          H96   1.075       .  S
C97          C98   1.355       .  D
C97          H99   1.087       .  S
C98         H100   1.087       .  S
C101        C102   1.411       .  A
C101        C106   1.396       .  A
C101        H107   1.083       .  S
C102        C103   1.414       .  A
C103        C104   1.394       .  A
C103        H108   1.069       .  S
C104        C105   1.398       .  A
C104        H109   1.083       .  S
C105        C106   1.405       .  A
C106        H110   1.083       .  S
C111        C112   1.418       .  A
C111        C116   1.388       .  A
C111        H445   1.075       .  S
C112        C113   1.413       .  A
C113        C114   1.407       .  A
C113        H118   1.076       .  S
C114        C115   1.406       .  A
C114        H119   1.082       .  S
C115        C116   1.395       .  A
C116        H448   1.083       .  S
H117        C767   1.068   1_455  S
H120        C772   1.082   1_455  S
C121        C122   1.368       .  D
C121        H123   1.085       .  S
C122        H124   1.080       .  S
C125        C126   1.418       .  A
C125        C130   1.403       .  A
C125        H131   1.078   1_455  S
C126        C127   1.415       .  A
C127        C128   1.391       .  A
C127        H132   1.079       .  S
C128        C129   1.396       .  A
C128        H133   1.084       .  S
C129        C130   1.402       .  A
C130        H134   1.083       .  S
C135        C628   1.361       .  D
C135        H137   1.086       .  S
C136        C955   1.355   1_454  D
C136        H302   1.085   1_455  S
H138        C300   1.086   1_655  S
C139        C304   1.352       .  D
C139        H141   1.086       .  S
C140        C303   1.344       .  D
C140        H142   1.088   1_554  S
C143        C144   1.413       .  A
C143        C148   1.383       .  A
C143        H805   1.082   1_455  S
C144        C145   1.416       .  A
C145        C146   1.414       .  A
C145        H150   1.081       .  S
C146        C147   1.407       .  A
C146        H151   1.083       .  S
C147        C148   1.393       .  A
C148        H808   1.085   1_455  S
H149        C471   1.081       .  S
H152        C476   1.085       .  S
C153        C154   1.361       .  D
C153        H155   1.086       .  S
C154        H156   1.081       .  S
C157        C814   1.354       .  D
C157        H159   1.089       .  S
C158        C485   1.355       .  D
C158        H160   1.087       .  S
C161        C162   1.371       .  D
C161        H163   1.087       .  S
C162        H164   1.086       .  S
C165        C308   1.540       .  S
C165        C318   1.539       .  S
C165        C321   1.524   1_455  S
C165        C325   1.536       .  S
C166        C290   1.548       .  S
C166        C300   1.532       .  S
C166        C304   1.551       .  S
C166        C326   1.534       .  S
C167        C276   1.559       .  S
C167        C285   1.545       .  S
C167        C317   1.551       .  S
C167        C322   1.541       .  S
C168        C266   1.552       .  S
C168        C286   1.544       .  S
C168        C299   1.537       .  S
C168        C303   1.547   1_556  S
C169        C247   1.560       .  S
C169        C253   1.543       .  S
C169        C257   1.545       .  S
C169        C261   1.540       .  S
C170        C229   1.561       .  S
C170        C236   1.541   1_455  S
C170        C239   1.544       .  S
C170        C262   1.550       .  S
C171        C212   1.566       .  S
C171        C221   1.543       .  S
C171        C254   1.542       .  S
C171        C258   1.537       .  S
C172        C202   1.539       .  S
C172        C222   1.539       .  S
C172        C235   1.525       .  S
C172        C240   1.521       .  S
O173       Ni181   1.910       .  S
O173        C183   1.279       .  A
O174       Ni181   1.912       .  S
O174        C184   1.281       .  A
O175       Ni181   1.927       .  S
O175        C185   1.283       .  A
O176       Ni181   1.925       .  S
O176        C186   1.283       .  A
O177       Ni182   1.918       .  S
O177        C186   1.282       .  A
O178       Ni182   1.917       .  S
O178        C185   1.283       .  A
O179       Ni182   1.895       .  S
O179        C184   1.278       .  A
O180       Ni182   1.902       .  S
O180        C183   1.277       .  A
Ni181      Ni182   2.392       .  S
C183        C205   1.450       .  S
C184        C293   1.462       .  S
C185        C226   1.485       .  S
C186        C269   1.484       .  S
O187        C197   1.280       .  A
O188       Ni195   1.935   1_565  S
O188        C854   1.287   1_455  A
O189       Ni195   1.920       .  S
O189        C855   1.283   1_455  A
O190        C200   1.277       .  A
O191        C528   1.283       .  A
O192       Ni196   1.918   1_556  S
O192        C199   1.281       .  A
O193       Ni196   1.914   1_566  S
O193        C198   1.279       .  A
O194        C525   1.279       .  A
Ni195      Ni852   2.388   1_456  S
Ni196      Ni523   2.390   1_554  S
C197        O850   1.280   1_455  A
C197        C244   1.464       .  S
C198        O516   1.284       .  A
C198        C279   1.478       .  S
C199        O517   1.283       .  A
C199        C215   1.480       .  S
C200        O847   1.282   1_455  A
C200        C311   1.458       .  S
C201        C202   1.416       .  A
C201        C206   1.392       .  A
C201        H207   1.079       .  S
C202        C203   1.412       .  A
C203        C204   1.391       .  A
C203        H208   1.077       .  S
C204        C205   1.397       .  A
C204        H209   1.084       .  S
C205        C206   1.392       .  A
C206        H210   1.083       .  S
C211        C212   1.422       .  A
C211        C216   1.396       .  A
C211        H217   1.074       .  S
C212        C213   1.416       .  A
C213        C214   1.401       .  A
C213        H218   1.074       .  S
C214        C215   1.403       .  A
C214        H219   1.084       .  S
C215        C216   1.397       .  A
C216        H548   1.084       .  S
H220        C872   1.083   1_455  S
C221        C222   1.350       .  D
C221        H223   1.088       .  S
C222        H224   1.080       .  S
C225        C226   1.404       .  A
C225        C230   1.403       .  A
C225        H231   1.083   1_455  S
C226        C227   1.401       .  A
C227        C228   1.397       .  A
C227        H232   1.083       .  S
C228        C229   1.416       .  A
C228        H233   1.074       .  S
C229        C230   1.415       .  A
C230        H234   1.080   1_455  S
C235        C400   1.350   1_556  D
C235        H237   1.088       .  S
C236        C727   1.356       .  D
C236        H238   1.085       .  S
C239        H241   1.085       .  S
C240        H242   1.087   1_556  S
C243        C244   1.398       .  A
C243        C248   1.404       .  A
C243        H249   1.083       .  S
C244        C245   1.395       .  A
C245        C246   1.385       .  A
C245        H250   1.085   1_455  S
C246        C247   1.413       .  A
C246        H251   1.077   1_455  S
C247        C248   1.422       .  A
C248        H252   1.076       .  S
C253        C254   1.363       .  D
C253        H255   1.086       .  S
C254        H256   1.087       .  S
C257        C914   1.350   1_455  D
C257        H259   1.087       .  S
C258        C585   1.351       .  D
C258        H260   1.076       .  S
C261        C262   1.357       .  D
C261        H263   1.078       .  S
C262        H264   1.088       .  S
C265        C266   1.413       .  A
C265        C270   1.398       .  A
C265        H271   1.083       .  S
C266        C267   1.416       .  A
C267        C268   1.401       .  A
C267        H272   1.077       .  S
C268        C269   1.403       .  A
C268        H273   1.083       .  S
C269        C270   1.404       .  A
C270        H274   1.083       .  S
C275        C276   1.418       .  A
C275        C280   1.389       .  A
C275        H609   1.081       .  S
C276        C277   1.414       .  A
C277        C278   1.405       .  A
C277        H282   1.075       .  S
C278        C279   1.405       .  A
C278        H283   1.083       .  S
C279        C280   1.396       .  A
C280        H612   1.083       .  S
H281        C931   1.075   1_455  S
H284        C936   1.083   1_455  S
C285        C286   1.362       .  D
C285        H287   1.086       .  S
C286        H288   1.086       .  S
C289        C290   1.419       .  A
C289        C294   1.394       .  A
C289        H295   1.079   1_455  S
C290        C291   1.410       .  A
C291        C292   1.388       .  A
C291        H296   1.075       .  S
C292        C293   1.400       .  A
C292        H297   1.084       .  S
C293        C294   1.396       .  A
C294        H298   1.083   1_455  S
C299        C464   1.356   1_556  D
C299        H301   1.088       .  S
C300        C791   1.361   1_455  D
C303        H305   1.072       .  S
C304        H306   1.087       .  S
C307        C308   1.412       .  A
C307        C312   1.381       .  A
C307        H969   1.082   1_455  S
C308        C309   1.415       .  A
C309        C310   1.406       .  A
C309        H314   1.079       .  S
C310        C311   1.401       .  A
C310        H315   1.083       .  S
C311        C312   1.394       .  A
C312        H972   1.084   1_455  S
H313        C635   1.075       .  S
H316        C640   1.085       .  S
C317        C318   1.341       .  D
C317        H319   1.087       .  S
C318        H320   1.081       .  S
C321        C978   1.343       .  D
C321        H323   1.091       .  S
C322        C649   1.358       .  D
C322        H324   1.085       .  S
C325        C326   1.361       .  D
C325        H327   1.087       .  S
C326        H328   1.086       .  S
C329        C472   1.549       .  S
C329        C482   1.550       .  S
C329        C485   1.549       .  S
C329        C489   1.535       .  S
C330        C454   1.559       .  S
C330        C464   1.532       .  S
C330        C468   1.543   1_554  S
C330        C490   1.533       .  S
C331        C440   1.561       .  S
C331        C449   1.531       .  S
C331        C481   1.563       .  S
C331        C486   1.551       .  S
C332        C430   1.535       .  S
C332        C450   1.534       .  S
C332        C463   1.539       .  S
C332        C467   1.542       .  S
C333        C411   1.556       .  S
C333        C417   1.533       .  S
C333        C421   1.540       .  S
C333        C425   1.519       .  S
C334        C393   1.547       .  S
C334        C400   1.533       .  S
C334        C403   1.531   1_554  S
C334        C426   1.521       .  S
C335        C376   1.558       .  S
C335        C385   1.531       .  S
C335        C418   1.527       .  S
C335        C422   1.529       .  S
C336        C366   1.560       .  S
C336        C386   1.521       .  S
C336        C399   1.548       .  S
C336        C404   1.535       .  S
O337       Ni345   1.916       .  S
O337        C347   1.281       .  A
O338       Ni345   1.916       .  S
O338        C348   1.280       .  A
O339       Ni345   1.913       .  S
O339        C349   1.279       .  A
O340       Ni345   1.919       .  S
O340        C350   1.283       .  A
O341       Ni346   1.897       .  S
O341        C350   1.277       .  A
O342       Ni346   1.899       .  S
O342        C349   1.280       .  A
O343       Ni346   1.925       .  S
O343        C348   1.284       .  A
O344       Ni346   1.932       .  S
O344        C347   1.284       .  A
Ni345      Ni346   2.392       .  S
C347        C369   1.481       .  S
C348        C457   1.477       .  S
C349        C390   1.461       .  S
C350        C433   1.462       .  S
O351       Ni523   1.917   1_554  S
O351        C361   1.280       .  A
O352       Ni359   1.922   1_565  S
O353       Ni359   1.905       .  S
O354       Ni523   1.919   1_564  S
O354        C364   1.279       .  A
O355       Ni524   1.903   1_565  S
O355        C692   1.282       .  A
O356       Ni360   1.903       .  S
O356        C363   1.279       .  A
O357       Ni360   1.914   1_565  S
O357        C362   1.279       .  A
O358       Ni524   1.895       .  S
O358        C689   1.278       .  A
Ni359       O515   1.929       .  S
Ni359       O518   1.903   1_545  S
Ni360       O519   1.908   1_545  S
Ni360       O522   1.908       .  S
Ni360      Ni687   2.392       .  S
C361        C408   1.465       .  S
C362        O680   1.284       .  A
C362        C443   1.476       .  S
C363        O681   1.281       .  A
C363        C379   1.471       .  S
C364        C475   1.468       .  S
C365        C366   1.419       .  A
C365        C370   1.405       .  A
C365        H371   1.078       .  S
C366        C367   1.413       .  A
C367        C368   1.397       .  A
C367        H372   1.083       .  S
C368        C369   1.403       .  A
C368        H373   1.084       .  S
C369        C370   1.401       .  A
C370        H374   1.083       .  S
C375        C376   1.419       .  A
C375        C380   1.394       .  A
C375        H381   1.075       .  S
C376        C377   1.416       .  A
C377        C378   1.392       .  A
C377        H382   1.075       .  S
C378        C379   1.399       .  A
C378        H383   1.084       .  S
C379        C380   1.398       .  A
C380        H712   1.083       .  S
C385        C386   1.340       .  D
C385        H387   1.088       .  S
C386        H388   1.081       .  S
C389        C390   1.400       .  A
C389        C394   1.403       .  A
C389        H395   1.083       .  S
C390        C391   1.395       .  A
C391        C392   1.380       .  A
C391        H396   1.084       .  S
C392        C393   1.410       .  A
C392        H397   1.076       .  S
C393        C394   1.416       .  A
C394        H398   1.074       .  S
C399        C892   1.356       .  D
C399        H401   1.087       .  S
C400        H402   1.088       .  S
C403        C568   1.348       .  D
C403        H405   1.088       .  S
C404        C567   1.352       .  D
C404        H406   1.079       .  S
C407        C408   1.398       .  A
C407        C412   1.401       .  A
C407        H413   1.083       .  S
C408        C409   1.396       .  A
C409        C410   1.386       .  A
C409        H414   1.084       .  S
C410        C411   1.411       .  A
C410        H415   1.074       .  S
C411        C412   1.422       .  A
C412        H416   1.078       .  S
C417        C418   1.350       .  D
C417        H419   1.087       .  S
C418        H420   1.087       .  S
C421        H423   1.088       .  S
C422        C749   1.351       .  D
C422        H424   1.077       .  S
C425        C426   1.351       .  D
C425        H427   1.088       .  S
C426        H428   1.087       .  S
C429        C430   1.410       .  A
C429        C434   1.394       .  A
C429        H435   1.080       .  S
C430        C431   1.412       .  A
C431        C432   1.393       .  A
C431        H436   1.079       .  S
C432        C433   1.395       .  A
C432        H437   1.083       .  S
C433        C434   1.403       .  A
C434        H438   1.084       .  S
C439        C440   1.417       .  A
C439        C444   1.393       .  A
C439        H773   1.082       .  S
C440        C441   1.417       .  A
C441        C442   1.403       .  A
C441        H446   1.074       .  S
C442        C443   1.401       .  A
C442        H447   1.083       .  S
C443        C444   1.396       .  A
C444        H776   1.081       .  S
C449        C450   1.359       .  D
C449        H451   1.086       .  S
C450        H452   1.084       .  S
C453        C454   1.418       .  A
C453        C458   1.403       .  A
C453        H459   1.078       .  S
C454        C455   1.415       .  A
C455        C456   1.394       .  A
C455        H460   1.075       .  S
C456        C457   1.398       .  A
C456        H461   1.083       .  S
C457        C458   1.402       .  A
C458        H462   1.083       .  S
C463        C956   1.353       .  D
C463        H465   1.089       .  S
C464        H630   1.084       .  S
H466        C628   1.082       .  S
C467        C632   1.349       .  D
C467        H469   1.084       .  S
C468        C631   1.340       .  D
C468        H470   1.086       .  S
C471        C472   1.414       .  A
C471        C476   1.384       .  A
C472        C473   1.415       .  A
C473        C474   1.411       .  A
C473        H478   1.079       .  S
C474        C475   1.405       .  A
C474        H479   1.083       .  S
C475        C476   1.394       .  A
H477        C799   1.084       .  S
H480        C804   1.085       .  S
C481        C482   1.361       .  D
C481        H483   1.087       .  S
C482        H484   1.084       .  S
C485        H487   1.090       .  S
C486        C813   1.347       .  D
C486        H488   1.086       .  S
C489        C490   1.361       .  D
C489        H491   1.087       .  S
C490        H492   1.086       .  S
C493        C636   1.557       .  S
C493        C646   1.544       .  S
C493        C649   1.529       .  S
C493        C653   1.525       .  S
C494        C618   1.541       .  S
C494        C628   1.558       .  S
C494        C632   1.543       .  S
C494        C654   1.527       .  S
C495        C604   1.552       .  S
C495        C613   1.542       .  S
C495        C645   1.546       .  S
C495        C650   1.544       .  S
C496        C594   1.545       .  S
C496        C614   1.529       .  S
C496        C627   1.524       .  S
C496        C631   1.538       .  S
C497        C575   1.555       .  S
C497        C581   1.532       .  S
C497        C585   1.535       .  S
C497        C589   1.518       .  S
C498        C557   1.528       .  S
C498        C564   1.536       .  S
C498        C567   1.537       .  S
C498        C590   1.528       .  S
C499        C540   1.556       .  S
C499        C549   1.546       .  S
C499        C582   1.532       .  S
C499        C586   1.533       .  S
C500        C530   1.541       .  S
C500        C550   1.537       .  S
C500        C563   1.539       .  S
C500        C568   1.522       .  S
O501       Ni509   1.911       .  S
O501        C511   1.278       .  A
O502       Ni509   1.905       .  S
O502        C512   1.278       .  A
O503       Ni509   1.923       .  S
O503        C513   1.282       .  A
O504       Ni509   1.924       .  S
O504        C514   1.284       .  A
O505       Ni510   1.901       .  S
O505        C514   1.278       .  A
O506       Ni510   1.883       .  S
O506        C513   1.276       .  A
O507       Ni510   1.908       .  S
O507        C512   1.279       .  A
O508       Ni510   1.918       .  S
O508        C511   1.281       .  A
Ni509      Ni510   2.394       .  S
C511        C533   1.462       .  S
C512        C621   1.453       .  S
C513        C554   1.459       .  S
C514        C597   1.472       .  S
O515        C525   1.283       .  A
O516       Ni523   1.919   1_565  S
O517       Ni523   1.921       .  S
O518        C528   1.277       .  A
O519        C856   1.281       .  A
O520       Ni524   1.905   1_556  S
O520        C527   1.280       .  A
O521       Ni524   1.902   1_566  S
O521        C526   1.276       .  A
O522        C853   1.280       .  A
Ni524      Ni851   2.392   1_554  S
C525        C572   1.471       .  S
C526        O844   1.286       .  A
C526        C607   1.472       .  S
C527        O845   1.280       .  A
C527        C543   1.468       .  S
C528        C639   1.462       .  S
C529        C530   1.418       .  A
C529        C534   1.400       .  A
C529        H535   1.084       .  S
C530        C531   1.409       .  A
C531        C532   1.392       .  A
C531        H536   1.079       .  S
C532        C533   1.399       .  A
C532        H537   1.081       .  S
C533        C534   1.396       .  A
C534        H538   1.083       .  S
C539        C540   1.419       .  A
C539        C544   1.393       .  A
C539        H545   1.075       .  S
C540        C541   1.416       .  A
C541        C542   1.390       .  A
C541        H546   1.075       .  S
C542        C543   1.397       .  A
C542        H547   1.084       .  S
C543        C544   1.398       .  A
C544        H876   1.084       .  S
C549        C550   1.348       .  D
C549        H551   1.087       .  S
C550        H552   1.077       .  S
C553        C554   1.400       .  A
C553        C558   1.400       .  A
C553        H559   1.083       .  S
C554        C555   1.400       .  A
C555        C556   1.378       .  A
C555        H560   1.084       .  S
C556        C557   1.405       .  A
C556        H561   1.084       .  S
C557        C558   1.417       .  A
C558        H562   1.080       .  S
C563        C728   1.355   1_556  D
C563        H565   1.089       .  S
C564        H566   1.080       .  S
C567        H569   1.078       .  S
C568        H570   1.073   1_556  S
C571        C572   1.401       .  A
C571        C576   1.406       .  A
C571        H577   1.083       .  S
C572        C573   1.396       .  A
C573        C574   1.385       .  A
C573        H578   1.084       .  S
C574        C575   1.411       .  A
C574        H579   1.072       .  S
C575        C576   1.421       .  A
C576        H580   1.078       .  S
C581        C582   1.350       .  D
C581        H583   1.088       .  S
C582        H584   1.087       .  S
C585        H587   1.088       .  S
C586        C913   1.341       .  D
C586        H588   1.075       .  S
C589        C590   1.353       .  D
C589        H591   1.087       .  S
C590        H592   1.078       .  S
C593        C594   1.410       .  A
C593        C598   1.396       .  A
C593        H599   1.081       .  S
C594        C595   1.416       .  A
C595        C596   1.394       .  A
C595        H600   1.074       .  S
C596        C597   1.396       .  A
C596        H601   1.083       .  S
C597        C598   1.405       .  A
C598        H602   1.083       .  S
C603        C604   1.412       .  A
C603        C608   1.388       .  A
C603        H937   1.073       .  S
C604        C605   1.412       .  A
C605        C606   1.403       .  A
C605        H610   1.080       .  S
C606        C607   1.406       .  A
C606        H611   1.083       .  S
C607        C608   1.395       .  A
C608        H940   1.083       .  S
C613        C614   1.352       .  D
C613        H615   1.080       .  S
C614        H616   1.084       .  S
C617        C618   1.414       .  A
C617        C622   1.398       .  A
C617        H623   1.082       .  S
C618        C619   1.413       .  A
C619        C620   1.385       .  A
C619        H624   1.076       .  S
C620        C621   1.394       .  A
C620        H625   1.085       .  S
C621        C622   1.398       .  A
C622        H626   1.083       .  S
C627        C792   1.348   1_556  D
C627        H629   1.089       .  S
C631        H633   1.077   1_556  S
C632        H634   1.086       .  S
C635        C636   1.416       .  A
C635        C640   1.389       .  A
C636        C637   1.418       .  A
C637        C638   1.401       .  A
C637        H642   1.081       .  S
C638        C639   1.397       .  A
C638        H643   1.083       .  S
C639        C640   1.396       .  A
H641        C963   1.082       .  S
H644        C968   1.085       .  S
C645        C646   1.351       .  D
C645        H647   1.084       .  S
C646        H648   1.080       .  S
C649        H651   1.089       .  S
C650        C977   1.346       .  D
C650        H652   1.085       .  S
C653        C654   1.350       .  D
C653        H655   1.088       .  S
C654        H656   1.089       .  S
C657        C800   1.541       .  S
C657        C810   1.544       .  S
C657        C813   1.540       .  S
C657        C817   1.520       .  S
C658        C782   1.547       .  S
C658        C792   1.521       .  S
C658        C796   1.537   1_554  S
C658        C818   1.518       .  S
C659        C768   1.559       .  S
C659        C777   1.538       .  S
C659        C809   1.544       .  S
C659        C814   1.565       .  S
C660        C758   1.563       .  S
C660        C778   1.534       .  S
C660        C791   1.535       .  S
C660        C795   1.550       .  S
C661        C739   1.555       .  S
C661        C745   1.536       .  S
C661        C749   1.530       .  S
C661        C753   1.528       .  S
C662        C721   1.569       .  S
C662        C728   1.533       .  S
C662        C731   1.538   1_554  S
C662        C754   1.537       .  S
C663        C704   1.563       .  S
C663        C713   1.547       .  S
C663        C746   1.535       .  S
C663        C750   1.540       .  S
C664        C694   1.534       .  S
C664        C714   1.538       .  S
C664        C727   1.542       .  S
C664        C732   1.524       .  S
O665       Ni673   1.907       .  S
O665        C675   1.278       .  A
O666       Ni673   1.910       .  S
O666        C676   1.279       .  A
O667       Ni673   1.936       .  S
O667        C677   1.285       .  A
O668       Ni673   1.940       .  S
O668        C678   1.287       .  A
O669       Ni674   1.925       .  S
O669        C678   1.283       .  A
O670       Ni674   1.923       .  S
O670        C677   1.283       .  A
O671       Ni674   1.895       .  S
O671        C676   1.279       .  A
O672       Ni674   1.905       .  S
O672        C675   1.278       .  A
Ni673      Ni674   2.390       .  S
C675        C697   1.451       .  S
C676        C785   1.459       .  S
C677        C718   1.494       .  S
C678        C761   1.495       .  S
O679       Ni851   1.928   1_554  S
O679        C689   1.282       .  A
O680       Ni687   1.923   1_565  S
O681       Ni687   1.914       .  S
O682       Ni851   1.906   1_564  S
O682        C692   1.276       .  A
O683       Ni852   1.920   1_565  S
O684       Ni688   1.916       .  S
O684        C691   1.283       .  A
O685       Ni688   1.911   1_565  S
O685        C690   1.279       .  A
O686       Ni852   1.912       .  S
Ni687       O843   1.923       .  S
Ni687       O846   1.914   1_545  S
Ni688       O847   1.913   1_545  S
Ni688       O850   1.904       .  S
C689        C736   1.465       .  S
C690        C771   1.482       .  S
C691        C707   1.480       .  S
C692        C803   1.457       .  S
C693        C694   1.417       .  A
C693        C698   1.393       .  A
C693        H699   1.084       .  S
C694        C695   1.410       .  A
C695        C696   1.391       .  A
C695        H700   1.080       .  S
C696        C697   1.399       .  A
C696        H701   1.084       .  S
C697        C698   1.393       .  A
C698        H702   1.083       .  S
C703        C704   1.420       .  A
C703        C708   1.400       .  A
C703        H709   1.076   1_655  S
C704        C705   1.417       .  A
C705        C706   1.395       .  A
C705        H710   1.075       .  S
C706        C707   1.399       .  A
C706        H711   1.084       .  S
C707        C708   1.401       .  A
C713        C714   1.354       .  D
C713        H715   1.087       .  S
C714        H716   1.076       .  S
C717        C718   1.405       .  A
C717        C722   1.408       .  A
C717        H723   1.083       .  S
C718        C719   1.402       .  A
C719        C720   1.400       .  A
C719        H724   1.083       .  S
C720        C721   1.417       .  A
C720        H725   1.072       .  S
C721        C722   1.417       .  A
C722        H726   1.080       .  S
C727        H729   1.089       .  S
C728        H730   1.086       .  S
C731        C896   1.344       .  D
C731        H733   1.085       .  S
C732        C895   1.358       .  D
C732        H734   1.081       .  S
C735        C736   1.399       .  A
C735        C740   1.406       .  A
C735        H741   1.083       .  S
C736        C737   1.396       .  A
C737        C738   1.382       .  A
C737        H742   1.085       .  S
C738        C739   1.409       .  A
C738        H743   1.076       .  S
C739        C740   1.422       .  A
C740        H744   1.077       .  S
C745        C746   1.357       .  D
C745        H747   1.087       .  S
C746        H748   1.087       .  S
C749        H751   1.088       .  S
C750        H752   1.074       .  S
C753        C754   1.349       .  D
C753        H755   1.080       .  S
C754        H756   1.088       .  S
C757        C758   1.413       .  A
C757        C762   1.406       .  A
C757        H763   1.083       .  S
C758        C759   1.420       .  A
C759        C760   1.405       .  A
C759        H764   1.076       .  S
C760        C761   1.402       .  A
C760        H765   1.083       .  S
C761        C762   1.408       .  A
C762        H766   1.083       .  S
C767        C768   1.413       .  A
C767        C772   1.390       .  A
C768        C769   1.412       .  A
C769        C770   1.404       .  A
C769        H774   1.081       .  S
C770        C771   1.407       .  A
C770        H775   1.083       .  S
C771        C772   1.397       .  A
C777        C778   1.346       .  D
C777        H779   1.087       .  S
C778        H780   1.089       .  S
C781        C782   1.419       .  A
C781        C786   1.398       .  A
C781        H787   1.078       .  S
C782        C783   1.411       .  A
C783        C784   1.382       .  A
C783        H788   1.072       .  S
C784        C785   1.395       .  A
C784        H789   1.084       .  S
C785        C786   1.398       .  A
C786        H790   1.083       .  S
C791        H793   1.088   1_655  S
C792        H958   1.088       .  S
H794        C956   1.086       .  S
C795        C960   1.351       .  D
C795        H797   1.075       .  S
C796        C959   1.345       .  D
C796        H798   1.085       .  S
C799        C800   1.412       .  A
C799        C804   1.376       .  A
C800        C801   1.413       .  A
C801        C802   1.405       .  A
C801        H806   1.079       .  S
C802        C803   1.403       .  A
C802        H807   1.083       .  S
C803        C804   1.394       .  A
C809        C810   1.347       .  D
C809        H811   1.086       .  S
C810        H812   1.088       .  S
C813        H815   1.089       .  S
C814        H816   1.086       .  S
C817        C818   1.352       .  D
C817        H819   1.087       .  S
C818        H820   1.087       .  S
C821        C964   1.544       .  S
C821        C974   1.548       .  S
C821        C977   1.537       .  S
C821        C981   1.545       .  S
C822        C946   1.563       .  S
C822        C956   1.550       .  S
C822        C960   1.561       .  S
C822        C982   1.536       .  S
C823        C932   1.571       .  S
C823        C941   1.538       .  S
C823        C973   1.558       .  S
C823        C978   1.534       .  S
C824        C922   1.541       .  S
C824        C942   1.530       .  S
C824        C955   1.537       .  S
C824        C959   1.529       .  S
C825        C903   1.558       .  S
C825        C909   1.535       .  S
C825        C913   1.533       .  S
C825        C917   1.530       .  S
C826        C885   1.543       .  S
C826        C892   1.547       .  S
C826        C895   1.528       .  S
C826        C918   1.531       .  S
C827        C868   1.561       .  S
C827        C877   1.538       .  S
C827        C910   1.527       .  S
C827        C914   1.532       .  S
C828        C858   1.565       .  S
C828        C878   1.535       .  S
C828        C891   1.531       .  S
C828        C896   1.533       .  S
O829       Ni837   1.917       .  S
O829        C839   1.283       .  A
O830       Ni837   1.914       .  S
O830        C840   1.279       .  A
O831       Ni837   1.909       .  S
O831        C841   1.279       .  A
O832       Ni837   1.916       .  S
O832        C842   1.282       .  A
O833       Ni838   1.902       .  S
O833        C842   1.278       .  A
O834       Ni838   1.907       .  S
O834        C841   1.279       .  A
O835       Ni838   1.929       .  S
O835        C840   1.286       .  A
O836       Ni838   1.934       .  S
O836        C839   1.284       .  A
Ni837      Ni838   2.391       .  S
C839        C861   1.486       .  S
C840        C949   1.479       .  S
C841        C882   1.455       .  S
C842        C925   1.470       .  S
O843        C853   1.282       .  A
O844       Ni851   1.926   1_565  S
O845       Ni851   1.907       .  S
O846        C856   1.278       .  A
O848       Ni852   1.915   1_556  S
O848        C855   1.281       .  A
O849       Ni852   1.921   1_566  S
O849        C854   1.279       .  A
C853        C900   1.472       .  S
C854        C935   1.487       .  S
C855        C871   1.483       .  S
C856        C967   1.460       .  S
C857        C858   1.420       .  A
C857        C862   1.410       .  A
C857        H863   1.078   1_655  S
C858        C859   1.413       .  A
C859        C860   1.392       .  A
C859        H864   1.074       .  S
C860        C861   1.400       .  A
C860        H865   1.084       .  S
C861        C862   1.404       .  A
C862        H866   1.083       .  S
C867        C868   1.417       .  A
C867        C872   1.396       .  A
C867        H873   1.075   1_655  S
C868        C869   1.416       .  A
C869        C870   1.399       .  A
C869        H874   1.084       .  S
C870        C871   1.404       .  A
C870        H875   1.083       .  S
C871        C872   1.401       .  A
C877        C878   1.358       .  D
C877        H879   1.084       .  S
C878        H880   1.081       .  S
C881        C882   1.395       .  A
C881        C886   1.398       .  A
C881        H887   1.083       .  S
C882        C883   1.395       .  A
C883        C884   1.388       .  A
C883        H888   1.084       .  S
C884        C885   1.412       .  A
C884        H889   1.077       .  S
C885        C886   1.417       .  A
C886        H890   1.079       .  S
C891        H893   1.089   1_655  S
C892        H894   1.086       .  S
C895        H897   1.086       .  S
C896        H898   1.087   1_556  S
C899        C900   1.399       .  A
C899        C904   1.402       .  A
C899        H905   1.083       .  S
C900        C901   1.399       .  A
C901        C902   1.391       .  A
C901        H906   1.084       .  S
C902        C903   1.411       .  A
C902        H907   1.075       .  S
C903        C904   1.422       .  A
C904        H908   1.079       .  S
C909        C910   1.357       .  D
C909        H911   1.083       .  S
C910        H912   1.087       .  S
C913        H915   1.088       .  S
C914        H916   1.075       .  S
C917        C918   1.349       .  D
C917        H919   1.088       .  S
C918        H920   1.088       .  S
C921        C922   1.410       .  A
C921        C926   1.395       .  A
C921        H927   1.083       .  S
C922        C923   1.415       .  A
C923        C924   1.392       .  A
C923        H928   1.073       .  S
C924        C925   1.397       .  A
C924        H929   1.084       .  S
C925        C926   1.404       .  A
C926        H930   1.083       .  S
C931        C932   1.419       .  A
C931        C936   1.392       .  A
C932        C933   1.415       .  A
C933        C934   1.413       .  A
C933        H938   1.077       .  S
C934        C935   1.409       .  A
C934        H939   1.083       .  S
C935        C936   1.395       .  A
C941        C942   1.360       .  D
C941        H943   1.085       .  S
C942        H944   1.082       .  S
C945        C946   1.415       .  A
C945        C950   1.395       .  A
C945        H951   1.074       .  S
C946        C947   1.419       .  A
C947        C948   1.405       .  A
C947        H952   1.079       .  S
C948        C949   1.403       .  A
C948        H953   1.083       .  S
C949        C950   1.397       .  A
C950        H954   1.084       .  S
C955        H957   1.088   1_655  S
C959        H961   1.075   1_556  S
C960        H962   1.086       .  S
C963        C964   1.412       .  A
C963        C968   1.380       .  A
C964        C965   1.416       .  A
C965        C966   1.408       .  A
C965        H970   1.079       .  S
C966        C967   1.402       .  A
C966        H971   1.083       .  S
C967        C968   1.394       .  A
C973        C974   1.344       .  D
C973        H975   1.088       .  S
C974        H976   1.080       .  S
C977        H979   1.089       .  S
C978        H980   1.087       .  S
C981        C982   1.364       .  D
C981        H983   1.087       .  S
C982        H984   1.086       .  S
