geometry optimzed in LAMMPS
_audit_creation_date              2020-11-30 
_audit_creation_method            'lammps2cif' 
_symmetry_space_group_name_H-M    'P1' 
_symmetry_Int_Tables_number       1 
_symmetry_cell_setting            triclinic 
loop_ 
_symmetry_equiv_pos_as_xyz 
  x,y,z 
_cell_length_a                    30.393526901473383 
_cell_length_b                    30.30086295396561 
_cell_length_c                    30.39076536958122 
_cell_angle_alpha                 90.16978106066229 
_cell_angle_beta                  90.01488836504903 
_cell_angle_gamma                 89.89321881597037 
loop_ 
_atom_site_label 
_atom_site_type_symbol 
_atom_site_fract_x 
_atom_site_fract_y 
_atom_site_fract_z 
_atom_site_charge 
O1          O  0.31821846  0.73033028  0.55228721    -0.81380
C2          C  0.18130699  0.73446738  0.43124671     0.97970
O3          O  0.18749114  0.70000235  0.45524533    -0.70500
O4          O  0.27127518  0.67572642  0.45693614    -0.74090
Al5        Al  0.23117449  0.69079982  0.50343898     1.48980
C6          C  0.30656511  0.69273997  0.44259943     0.93220
O7          O  0.28882719  0.80672526  0.45427269    -0.80310
O8          O  0.21170413  0.79903682  0.56043131    -0.73870
Al9        Al  0.29980144  0.76735959  0.50454796     1.90120
O10         O  0.23347645  0.83656225  0.48632806    -0.72940
O11         O  0.15509797  0.74855410  0.51528044    -0.72790
O12         O  0.19449767  0.77208494  0.44295803    -0.78450
O13         O  0.18867244  0.69967064  0.55303368    -0.76660
O14         O  0.24560819  0.74700263  0.50340188    -1.12790
O15         O  0.27254791  0.67431661  0.54848781    -0.71980
C16         C  0.30516361  0.69328957  0.56633568     0.98730
C17         C  0.25821785  0.83500953  0.45400092     0.95130
Al18       Al  0.20218379  0.78579226  0.50157733     1.55560
O19         O  0.32217705  0.72706359  0.46064620    -0.76610
C20         C  0.15649115  0.72609658  0.54920993     0.99300
C21         C  0.24768852  0.81653823  0.57224755     0.94180
O22         O  0.28358976  0.81102157  0.55031286    -0.81930
O23         O  0.65579281  0.30045254  0.55248233    -0.81380
C24         C  0.79751632  0.30290011  0.43570413     0.97970
O25         O  0.78941737  0.33718541  0.45943357    -0.70500
O26         O  0.70424002  0.35765413  0.45470369    -0.74090
Al27       Al  0.74130531  0.34450649  0.50403865     1.48980
C28         C  0.66821156  0.34123434  0.44155307     0.93220
O29         O  0.68742723  0.22873451  0.45191930    -0.80310
O30         O  0.76173794  0.23541436  0.55939753    -0.73870
Al31       Al  0.67505403  0.26590897  0.50327148     1.90120
O32         O  0.74439702  0.19964280  0.48250235    -0.72940
O33         O  0.81817937  0.28842197  0.52270593    -0.72790
O34         O  0.78375007  0.26544048  0.44600626    -0.78450
O35         O  0.77935560  0.33726474  0.55647952    -0.76660
O36         O  0.72873932  0.28775975  0.50340311    -1.12790
O37         O  0.69632406  0.36000838  0.54584919    -0.71980
C38         C  0.66604994  0.33885206  0.56518920     0.98730
C39         C  0.71863360  0.20114171  0.45076381     0.95130
Al40       Al  0.77333601  0.25040623  0.50273560     1.55560
O41         O  0.65204951  0.30780919  0.46084128    -0.76610
C42         C  0.81232084  0.31174298  0.55600460     0.99300
C43         C  0.72705852  0.21546828  0.56960568     0.94180
O44         O  0.69132662  0.22028356  0.54730219    -0.81930
O45         O  0.64402327  0.73301780  0.45568983    -0.81380
C46         C  0.78565256  0.75913536  0.56871297     0.97970
O47         O  0.78052082  0.72196526  0.54843118    -0.70500
O48         O  0.70016539  0.68629027  0.55115658    -0.74090
Al49       Al  0.73653670  0.70454883  0.50257949     1.48980
C50         C  0.66305175  0.69908856  0.56519862     0.93220
O51         O  0.66885521  0.81373832  0.55172831    -0.80310
O52         O  0.73933583  0.80988820  0.43969576    -0.73870
Al53       Al  0.65950867  0.77261027  0.50197865     1.90120
O54         O  0.71600242  0.84993680  0.51386833    -0.72940
O55         O  0.80466619  0.77172251  0.48247934    -0.72790
O56         O  0.76757482  0.79414144  0.55562662    -0.78450
O57         O  0.77623124  0.71450361  0.45187809    -0.76660
O58         O  0.71574136  0.75865625  0.50089047    -1.12790
O59         O  0.69535364  0.68175707  0.45897499    -0.71980
C60         C  0.66056711  0.69736991  0.44151492     0.98730
C61         C  0.69449326  0.84633999  0.54852538     0.95130
Al62       Al  0.75373104  0.80271314  0.49798573     1.55560
O63         O  0.64360232  0.73106228  0.54678895    -0.76610
C64         C  0.80588270  0.74371548  0.45270325     0.99300
C65         C  0.70124397  0.82258746  0.42899295     0.94180
O66         O  0.66762087  0.81660221  0.45410011    -0.81930
O67         O  0.43614456  0.34994557  0.28975909    -0.81380
C68         C  0.55336746  0.20770143  0.27900521     0.97970
O69         O  0.53162588  0.21477892  0.31484812    -0.70500
O70         O  0.53487262  0.29904297  0.34114325    -0.74090
Al71       Al  0.48603699  0.26157272  0.32715143     1.48980
C72         C  0.54747137  0.33580110  0.32595210     0.93220
O73         O  0.53336118  0.32128864  0.21329485    -0.80310
O74         O  0.42629374  0.24628745  0.22205617    -0.73870
Al75       Al  0.48333224  0.33215338  0.25263913     1.90120
O76         O  0.49937212  0.26816290  0.18192631    -0.72940
O77         O  0.46744154  0.18705647  0.26797246    -0.72790
O78         O  0.54178517  0.22396111  0.24282535    -0.78450
O79         O  0.43426711  0.22226029  0.31969716    -0.76660
O80         O  0.48447008  0.27726283  0.27162320    -1.12790
O81         O  0.44344999  0.30528001  0.34616899    -0.71980
C82         C  0.42408204  0.33736134  0.32740341     0.98730
C83         C  0.53283584  0.29154920  0.18412007     0.95130
Al84       Al  0.48379567  0.23474959  0.23180727     1.55560
O85         O  0.52752491  0.35315520  0.29354167    -0.76610
C86         C  0.43516277  0.19015896  0.29298458     0.99300
C87         C  0.41376462  0.28164229  0.20476484     0.94180
O88         O  0.43627126  0.31754725  0.20885412    -0.81930
O89         O  0.65018986  0.46694740  0.28244898    -0.81380
C90         C  0.78672569  0.59140205  0.27561034     0.97970
O91         O  0.78196099  0.56569429  0.30870756    -0.70500
O92         O  0.69937581  0.56700128  0.33702911    -0.74090
Al93       Al  0.73678538  0.51977498  0.31892461     1.48980
C94         C  0.66105960  0.57798528  0.32488004     0.93220
O95         O  0.66735190  0.57212705  0.21221217    -0.80310
O96         O  0.74828085  0.46873809  0.20504150    -0.73870
Al97       Al  0.66261315  0.51840931  0.24791236     1.90120
O98         O  0.72276140  0.54620990  0.17615448    -0.72940
O99         O  0.80756250  0.50641288  0.25371997    -0.72790
O100        O  0.76862099  0.58359459  0.23912787    -0.78450
O101        O  0.77607969  0.47025197  0.30586474    -0.76660
O102        O  0.71832273  0.52119106  0.26379741    -1.12790
O103        O  0.69541750  0.47566789  0.33809238    -0.71980
C104        C  0.66410335  0.45499225  0.31984125     0.98730
C105        C  0.69457033  0.57554251  0.18111173     0.95130
Al106      Al  0.75840870  0.52601600  0.22195724     1.55560
O107        O  0.64221583  0.55790111  0.29339892    -0.76610
C108        C  0.80505125  0.47214776  0.27599534     0.99300
C109        C  0.71200566  0.45604268  0.18990777     0.94180
O110        O  0.67593507  0.47653634  0.19875095    -0.81930
O111        O  0.44176798  0.73036616  0.33849001    -0.81380
C112        C  0.53604138  0.73259774  0.17752390     0.97970
O113        O  0.53459669  0.70518868  0.20867937    -0.70500
O114        O  0.52394822  0.67800565  0.29050911    -0.74090
Al115      Al  0.48243420  0.69909178  0.24621094     1.48980
C116        C  0.54405612  0.69654972  0.32234791     0.93220
O117        O  0.53233930  0.81786356  0.30611451    -0.80310
O118        O  0.47122379  0.84447977  0.25612917    -0.73870
Al119      Al  0.48575038  0.77243254  0.31826828     1.90120
O120        O  0.54668602  0.80545850  0.23545847    -0.72940
O121        O  0.42929241  0.78560496  0.20744322    -0.72790
O122        O  0.50542982  0.75966223  0.17409399    -0.78450
O123        O  0.43848574  0.71332706  0.19835977    -0.76660
O124        O  0.48532422  0.75465297  0.26291231    -1.12790
O125        O  0.43266325  0.68570915  0.28218078    -0.71980
C126        C  0.42123835  0.69880117  0.32007242     0.98730
C127        C  0.55652851  0.82343155  0.27165311     0.95130
Al128      Al  0.48799686  0.79559616  0.22149321     1.55560
O129        O  0.53309123  0.73487085  0.33478161    -0.76610
C130        C  0.41753273  0.74957625  0.19035332     0.99300
C131        C  0.43713201  0.84158428  0.27856498     0.94180
O132        O  0.43564757  0.81170807  0.30745635    -0.81930
O133        O  0.31642034  0.56528950  0.28451943    -0.81380
C134        C  0.17264181  0.44963345  0.28651243     0.97970
O135        O  0.18191775  0.47347910  0.32024895    -0.70500
O136        O  0.26674485  0.46703380  0.34201338    -0.74090
Al137      Al  0.23053416  0.51682041  0.32765131     1.48980
C138        C  0.30352465  0.45413007  0.32706842     0.93220
O139        O  0.28664064  0.46245889  0.21365709    -0.80310
O140        O  0.21236341  0.57080536  0.21739361    -0.73870
Al141      Al  0.29805262  0.51487604  0.25040269     1.90120
O142        O  0.22982646  0.49274922  0.18342607    -0.72940
O143        O  0.15502196  0.53610467  0.26985119    -0.72790
O144        O  0.18814409  0.45760526  0.24906877    -0.78450
O145        O  0.19329155  0.56958567  0.31938062    -0.76660
O146        O  0.24398820  0.51527810  0.27119010    -1.12790
O147        O  0.27563515  0.55806419  0.34363214    -0.71980
C148        C  0.30581220  0.57785203  0.32286705     0.98730
C149        C  0.25701848  0.46204203  0.18443641     0.95130
Al150      Al  0.20010666  0.51433171  0.23315880     1.55560
O151        O  0.32037137  0.47309152  0.29376370    -0.76610
C152        C  0.16057399  0.56913971  0.29370320     0.99300
C153        C  0.24704501  0.58058596  0.19737517     0.94180
O154        O  0.28271650  0.55827201  0.20328067    -0.81930
O155        O  0.27419738  0.55962510  0.66565604    -0.81380
C156        C  0.24438588  0.44843854  0.80624062     0.97970
O157        O  0.28237067  0.46732442  0.80202673    -0.70500
O158        O  0.31929766  0.46530592  0.72205177    -0.74090
Al159      Al  0.30132780  0.51382059  0.75856150     1.48980
C160        C  0.30576357  0.45051798  0.68556021     0.93220
O161        O  0.18995164  0.46699252  0.69193098    -0.80310
O162        O  0.19979037  0.58007316  0.76143536    -0.73870
Al163      Al  0.23330165  0.51513627  0.68169648     1.90120
O164        O  0.15604592  0.50819723  0.73784425    -0.72940
O165        O  0.23552751  0.53462594  0.82682913    -0.72790
O166        O  0.21018919  0.46332180  0.78826482    -0.78450
O167        O  0.29201837  0.56500951  0.79814719    -0.76660
O168        O  0.24754492  0.51656464  0.73765877    -1.12790
O169        O  0.32454299  0.55766236  0.71778743    -0.71980
C170        C  0.30913967  0.57458469  0.68264973     0.98730
C171        C  0.15783525  0.47227371  0.71800283     0.95130
Al172      Al  0.20391219  0.52137335  0.77561838     1.55560
O173        O  0.27324471  0.46842004  0.66652619    -0.76610
C174        C  0.26256216  0.56510918  0.82742451     0.99300
C175        C  0.18690277  0.59090599  0.72347456     0.94180
O176        O  0.19157563  0.56529836  0.68977560    -0.81930
O177        O  0.53159370  0.73478490  0.66884556    -0.81380
C178        C  0.41212208  0.74845160  0.80613474     0.97970
O179        O  0.43576072  0.71317884  0.80191753    -0.70500
O180        O  0.43760363  0.68231776  0.71998552    -0.74090
Al181      Al  0.48386208  0.70041810  0.75846809     1.48980
C182        C  0.42331053  0.69669637  0.68363686     0.93220
O183        O  0.43328664  0.81326299  0.69460688    -0.80310
O184        O  0.54045093  0.80726130  0.77138537    -0.73870
Al185      Al  0.48413320  0.77272130  0.68544875     1.90120
O186        O  0.46812476  0.84568260  0.74639943    -0.72940
O187        O  0.49614419  0.76253617  0.83101907    -0.72790
O188        O  0.42352486  0.78493723  0.78988876    -0.78450
O189        O  0.53360298  0.71179214  0.79951776    -0.76660
O190        O  0.48343427  0.75549412  0.74059113    -1.12790
O191        O  0.52884423  0.68142947  0.71762846    -0.71980
C192        C  0.54620376  0.69872951  0.68382531     0.98730
C193        C  0.43533962  0.84451432  0.72219727     0.95130
Al194      Al  0.48209270  0.79686452  0.78146093     1.55560
O195        O  0.44031805  0.73068667  0.66616771    -0.76610
C196        C  0.53024784  0.73996232  0.83017929     0.99300
C197        C  0.55301761  0.82286767  0.73510810     0.94180
O198        O  0.53118080  0.81720952  0.69902020    -0.81930
O199        O  0.69895870  0.47007963  0.66981855    -0.81380
C200        C  0.70206532  0.58858452  0.80723063     0.97970
O201        O  0.66744494  0.56507590  0.80112248    -0.70500
O202        O  0.64470781  0.56489341  0.71760987    -0.74090
Al203      Al  0.65863479  0.51784754  0.75665656     1.48980
C204        C  0.66217848  0.57981692  0.68293759     0.93220
O205        O  0.77716431  0.56670344  0.70203809    -0.80310
O206        O  0.76658332  0.45843280  0.77622011    -0.73870
Al207      Al  0.73644446  0.51728982  0.68939566     1.90120
O208        O  0.80478468  0.53342627  0.75799059    -0.72940
O209        O  0.71461129  0.50274667  0.83304809    -0.72790
O210        O  0.73953321  0.57568379  0.79535923    -0.78450
O211        O  0.66591128  0.46736710  0.79717622    -0.76660
O212        O  0.71523166  0.51730188  0.74313248    -1.12790
O213        O  0.64253075  0.47388813  0.71488366    -0.71980
C214        C  0.66198956  0.45583608  0.68281857     0.98730
C215        C  0.80538872  0.56539313  0.73269730     0.95130
Al216      Al  0.75312060  0.51747404  0.78717356     1.55560
O217        O  0.69694218  0.56234209  0.66765198    -0.76610
C218        C  0.69282074  0.46853415  0.82885603     0.99300
C219        C  0.78408271  0.44755391  0.73987661     0.94180
O220        O  0.77901235  0.47064701  0.70472816    -0.81930
O221        O  0.53627581  0.34593668  0.72248788    -0.81380
C222        C  0.41821824  0.20647288  0.72687784     0.97970
O223        O  0.44200363  0.21236570  0.69244187    -0.70500
O224        O  0.44004002  0.29642430  0.66821930    -0.74090
Al225      Al  0.48818507  0.25799226  0.68320991     1.48980
C226        C  0.42583608  0.33243030  0.68425850     0.93220
O227        O  0.43715835  0.31680607  0.79830961    -0.80310
O228        O  0.54549159  0.24163787  0.79238722    -0.73870
Al229      Al  0.48787392  0.32776545  0.75928753     1.90120
O230        O  0.46863855  0.26100527  0.82860429    -0.72940
O231        O  0.50392103  0.18286382  0.74210681    -0.72790
O232        O  0.42975719  0.22042280  0.76402564    -0.78450
O233        O  0.53920953  0.21753473  0.69186885    -0.76660
O234        O  0.48793889  0.27313183  0.73936686    -1.12790
O235        O  0.53142018  0.30069750  0.66602216    -0.71980
C236        C  0.54958547  0.33317770  0.68494562     0.98730
C237        C  0.43681553  0.28672133  0.82712655     0.95130
Al238      Al  0.48719528  0.23010503  0.77832020     1.55560
O239        O  0.44427829  0.34914827  0.71786305    -0.76610
C240        C  0.53690221  0.18531928  0.71823173     0.99300
C241        C  0.55503430  0.27768004  0.81114684     0.94180
O242        O  0.53259581  0.31317765  0.80469674    -0.81930
O243        O  0.32644421  0.30058803  0.45946959    -0.81380
C244        C  0.18440314  0.27297082  0.57044445     0.97970
O245        O  0.18919828  0.30957933  0.54964253    -0.70500
O246        O  0.26926839  0.34555474  0.55441376    -0.74090
Al247      Al  0.23320739  0.32727181  0.50519819     1.48980
C248        C  0.30646488  0.33267379  0.56843943     0.93220
O249        O  0.30148633  0.21793203  0.55472986    -0.80310
O250        O  0.23412655  0.22336174  0.44140106    -0.73870
Al251      Al  0.31142700  0.26001174  0.50512962     1.90120
O252        O  0.25622443  0.18295721  0.51436422    -0.72940
O253        O  0.16662883  0.25874354  0.48285999    -0.72790
O254        O  0.20148391  0.23713651  0.55752898    -0.78450
O255        O  0.19439560  0.31664027  0.45362083    -0.76660
O256        O  0.25485984  0.27346571  0.50353141    -1.12790
O257        O  0.27394777  0.35074108  0.46272293    -0.71980
C258        C  0.30897354  0.33590529  0.44542041     0.98730
C259        C  0.27467297  0.18620974  0.55055196     0.95130
Al260      Al  0.21763504  0.22902657  0.49936806     1.55560
O261        O  0.32607668  0.30094178  0.54999632    -0.76610
C262        C  0.16705151  0.28519563  0.45196414     0.99300
C263        C  0.27212316  0.21049342  0.43111857     0.94180
O264        O  0.30521980  0.21626598  0.45679092    -0.81930
C265        C  0.38617307  0.35443416  0.66389200     0.03540
C266        C  0.36636989  0.39226475  0.68302823    -0.12610
C267        C  0.32771120  0.41123692  0.66488793     0.01040
C268        C  0.30891195  0.39169974  0.62714691    -0.11130
C269        C  0.32766651  0.35409440  0.60749247     0.03530
C270        C  0.36633315  0.33597998  0.62605932    -0.10550
H271        H  0.38073362  0.40663882  0.71238077     0.09130
H272        H  0.27916344  0.40550646  0.61323877     0.06660
H273        H  0.38070731  0.30670306  0.61135661     0.06510
C274        C  0.32928182  0.35905576  0.40692828     0.03540
C275        C  0.36766230  0.34158647  0.38761828    -0.12610
C276        C  0.38567399  0.35962508  0.34909407     0.01040
C277        C  0.36501100  0.39694069  0.33001836    -0.11130
C278        C  0.32662985  0.41575739  0.34872343     0.03530
C279        C  0.30916224  0.39625957  0.38728087    -0.10550
H280        H  0.38291426  0.31261222  0.40191548     0.09130
H281        H  0.37825801  0.41075574  0.30009821     0.06660
H282        H  0.27924254  0.40953764  0.40160610     0.06510
C283        C  0.64344902  0.35903531  0.60419613     0.03540
C284        C  0.66021614  0.39806278  0.62308131    -0.12610
C285        C  0.64163427  0.41637925  0.66140555     0.01040
C286        C  0.60511507  0.39521374  0.68084007    -0.11130
C287        C  0.58737229  0.35614952  0.66282796     0.03530
C288        C  0.60691330  0.33842531  0.62432766    -0.10550
H289        H  0.68865177  0.41377798  0.60845001     0.09130
H290        H  0.59092853  0.40875785  0.71067275     0.06660
H291        H  0.59414745  0.30811300  0.61040560     0.06510
C292        C  0.64173768  0.61915291  0.66104053     0.03540
C293        C  0.66068600  0.63876957  0.62335127    -0.12610
C294        C  0.64218844  0.67714587  0.60431201     0.01040
C295        C  0.60423415  0.69574993  0.62395182    -0.11130
C296        C  0.58486790  0.67708395  0.66180834     0.03530
C297        C  0.60380895  0.63869523  0.67966249    -0.10550
H298        H  0.69013286  0.62443612  0.60911271     0.09130
H299        H  0.59014118  0.72553463  0.61015511     0.06660
H300        H  0.58939141  0.62446360  0.70888150     0.06510
C301        C  0.38536396  0.67371051  0.66191945     0.03540
C302        C  0.36517400  0.69197265  0.62425784    -0.12610
C303        C  0.32791408  0.67216165  0.60481608     0.01040
C304        C  0.31128827  0.63301911  0.62353443    -0.11130
C305        C  0.33054174  0.61386083  0.66137302     0.03530
C306        C  0.36765371  0.63457724  0.68012404    -0.10550
H307        H  0.37800735  0.72227714  0.61053617     0.09130
H308        H  0.28234330  0.61802085  0.60916990     0.06660
H309        H  0.38222613  0.62067787  0.70954582     0.06510
C310        C  0.32775308  0.61704691  0.34380414     0.03540
C311        C  0.31084681  0.63466394  0.38332324    -0.12610
C312        C  0.32868081  0.67290850  0.40289335     0.01040
C313        C  0.36524002  0.69333256  0.38243002    -0.11130
C314        C  0.38320558  0.67647773  0.34274183     0.03530
C315        C  0.36383640  0.63834732  0.32381446    -0.10550
H316        H  0.28260668  0.61907958  0.39842820     0.09130
H317        H  0.37903701  0.72302061  0.39680690     0.06660
H318        H  0.37675943  0.62523951  0.29327254     0.06510
C319        C  0.63905150  0.67465233  0.40303540     0.03540
C320        C  0.65734996  0.63613867  0.38442607    -0.12610
C321        C  0.63869183  0.61620115  0.34668158     0.01040
C322        C  0.60068598  0.63520426  0.32769459    -0.11130
C323        C  0.58185726  0.67402852  0.34509139     0.03530
C324        C  0.60128879  0.69317252  0.38292779    -0.10550
H325        H  0.68686595  0.62216035  0.39881380     0.09130
H326        H  0.58679677  0.62077930  0.29815346     0.06660
H327        H  0.58740569  0.72325194  0.39631258     0.06510
C328        C  0.64376678  0.41604181  0.34257552     0.03540
C329        C  0.66307284  0.39838717  0.38101898    -0.12610
C330        C  0.64536322  0.36093345  0.40221230     0.01040
C331        C  0.60716286  0.34130865  0.38422400    -0.11130
C332        C  0.58685419  0.35829034  0.34586526     0.03530
C333        C  0.60560421  0.39567056  0.32549531    -0.10550
H334        H  0.69261995  0.41348121  0.39409974     0.09130
H335        H  0.59355539  0.31229790  0.39978132     0.06660
H336        H  0.59072318  0.40866635  0.29583385     0.06510
O337        O  0.81940162  0.06302595  0.78703208    -0.81380
C338        C  0.68458953  0.94042226  0.78254281     0.97970
O339        O  0.69009565  0.96528319  0.81662248    -0.70500
O340        O  0.77289197  0.96833967  0.84190594    -0.74090
Al341      Al  0.73267338  0.01414258  0.82584330     1.48980
C342        C  0.80794708  0.95329280  0.82502289     0.93220
O343        O  0.79097127  0.96397057  0.70854929    -0.80310
O344        O  0.71213880  0.06885285  0.71865826    -0.73870
Al345      Al  0.80114007  0.01458495  0.74953454     1.90120
O346        O  0.73507188  0.99647278  0.68028903    -0.72940
O347        O  0.65611181  0.02450940  0.76859155    -0.72790
O348        O  0.69744291  0.95160308  0.74465975    -0.78450
O349        O  0.69041100  0.06346035  0.81624008    -0.76660
O350        O  0.74717848  0.01317190  0.76982497    -1.12790
O351        O  0.77301251  0.05994964  0.84220807    -0.71980
C352        C  0.80553158  0.07796747  0.82352300     0.98730
C353        C  0.76208309  0.96589860  0.67856346     0.95130
Al354      Al  0.70377204  0.01043810  0.73126162     1.55560
O355        O  0.82331276  0.97021554  0.78999165    -0.76610
C356        C  0.65817178  0.05931548  0.79023253     0.99300
C357        C  0.74739382  0.08203631  0.70118799     0.94180
O358        O  0.78410262  0.06105983  0.70648759    -0.81930
C359        C  0.82663881  0.11783986  0.84447325     0.03540
C360        C  0.86339667  0.13875689  0.82502509    -0.12610
C361        C  0.88192950  0.17763963  0.84330604     0.01040
C362        C  0.86272654  0.19544970  0.88176342    -0.11130
C363        C  0.82608742  0.17525829  0.90220583     0.03530
C364        C  0.80865716  0.13643256  0.88328901    -0.10550
H365        H  0.87729735  0.12497754  0.79519997     0.09130
H366        H  0.87629028  0.22538328  0.89574822     0.06660
H367        H  0.78012338  0.12123458  0.89830595     0.06510
O368        O  0.03036665  0.17871465  0.78793816    -0.81380
C369        C  0.92380320  0.32710020  0.76812895     0.97970
O370        O  0.94309273  0.31844711  0.80478348    -0.70500
O371        O  0.93540270  0.23630238  0.83593988    -0.74090
Al372      Al  0.98607166  0.27176822  0.82002826     1.48980
C373        C  0.92080920  0.19970331  0.82180312     0.93220
O374        O  0.93456856  0.21188801  0.70740039    -0.80310
O375        O  0.05155475  0.27448642  0.71476429    -0.73870
Al376      Al  0.98408438  0.19765580  0.74856135     1.90120
O377        O  0.97568025  0.25878542  0.67487505    -0.72940
O378        O  0.01309492  0.34163569  0.75573970    -0.72790
O379        O  0.93718145  0.31210907  0.73170943    -0.78450
O380        O  0.03901263  0.30941324  0.81307301    -0.76660
O381        O  0.98783159  0.25349415  0.76504231    -1.12790
O382        O  0.02700764  0.22815417  0.84116663    -0.71980
C383        C  0.04431638  0.19386630  0.82443266     0.98730
C384        C  0.93956218  0.23971024  0.67663648     0.95130
Al385      Al  0.99398388  0.29337508  0.72290070     1.55560
O386        O  0.93893000  0.18135038  0.78916167    -0.76610
C387        C  0.04172632  0.33964136  0.78463615     0.99300
C388        C  0.05861865  0.23639827  0.69922000     0.94180
O389        O  0.03143180  0.20451915  0.70462502    -0.81930
O390        O  0.15115092  0.96780046  0.78202592    -0.81380
C391        C  0.29404655  0.08533001  0.78017896     0.97970
O392        O  0.28675208  0.06057298  0.81352938    -0.70500
O393        O  0.20272946  0.06766148  0.83808381    -0.74090
Al394      Al  0.23778864  0.01784487  0.82227060     1.48980
C395        C  0.16454976  0.07876449  0.82559668     0.93220
O396        O  0.17485525  0.07307601  0.71375397    -0.80310
O397        O  0.25087610  0.96615787  0.70819335    -0.73870
Al398      Al  0.16641855  0.01926064  0.74865187     1.90120
O399        O  0.23084201  0.04541645  0.67955732    -0.72940
O400        O  0.30976065  0.99840598  0.75994163    -0.72790
O401        O  0.27626167  0.07822111  0.74363722    -0.78450
O402        O  0.27399293  0.96537400  0.81182076    -0.76660
O403        O  0.22163025  0.01945104  0.76643854    -1.12790
O404        O  0.19298772  0.97706578  0.84022920    -0.71980
C405        C  0.16265051  0.95642111  0.82040749     0.98730
C406        C  0.20353903  0.07578401  0.68383199     0.95130
Al407      Al  0.26347837  0.02192763  0.72622439     1.55560
O408        O  0.14587148  0.05863727  0.79407015    -0.76610
C409        C  0.30513214  0.96566251  0.78432178     0.99300
C410        C  0.21465224  0.95644664  0.69091992     0.94180
O411        O  0.17921771  0.97790526  0.69949960    -0.81930
C412        C  0.14007722  0.17358723  0.90511598     0.03540
C413        C  0.10145953  0.19118593  0.88558133    -0.12610
C414        C  0.08276935  0.17234182  0.84721050     0.01040
C415        C  0.10319211  0.13477489  0.82884676    -0.11130
C416        C  0.14172234  0.11658757  0.84748775     0.03530
C417        C  0.15972213  0.13624674  0.88560946    -0.10550
H418        H  0.08655262  0.22049617  0.89959650     0.09130
H419        H  0.08981046  0.12041229  0.79906271     0.06660
H420        H  0.18965310  0.12288824  0.89971988     0.06510
O421        O  0.03467442  0.79932945  0.83777964    -0.81380
C422        C  0.91735376  0.78218988  0.69929118     0.97970
O423        O  0.93961589  0.81794866  0.70498127    -0.70500
O424        O  0.93861822  0.84822416  0.78633108    -0.74090
Al425      Al  0.98624638  0.83213590  0.74828271     1.48980
C426        C  0.92490224  0.83345398  0.82272112     0.93220
O427        O  0.94025539  0.71743311  0.81052974    -0.80310
O428        O  0.04846453  0.72726822  0.73700020    -0.73870
Al429      Al  0.98874547  0.75959598  0.82086577     1.90120
O430        O  0.97621206  0.68658349  0.75830910    -0.72940
O431        O  0.00450662  0.77050899  0.67522995    -0.72790
O432        O  0.93159179  0.74523472  0.71215285    -0.78450
O433        O  0.03713339  0.82371614  0.70822990    -0.76660
O434        O  0.98811443  0.77690517  0.76554064    -1.12790
O435        O  0.02940652  0.85270473  0.78917843    -0.71980
C436        C  0.04756376  0.83602449  0.82271722     0.98730
C437        C  0.94292219  0.68730603  0.78166006     0.95130
Al438      Al  0.99011362  0.73578044  0.72409668     1.55560
O439        O  0.94321287  0.80004286  0.84001563    -0.76610
C440        C  0.03643906  0.79579292  0.67732704     0.99300
C441        C  0.05973345  0.71106224  0.77350939     0.94180
O442        O  0.03669317  0.71634263  0.80868863    -0.81930
C443        C  0.08527173  0.85936896  0.84395288     0.03540
C444        C  0.10407519  0.89702814  0.82411120    -0.12610
C445        C  0.14122581  0.91788162  0.84251190     0.01040
C446        C  0.15931582  0.90046107  0.88151100    -0.11130
C447        C  0.14144504  0.86270659  0.90185209     0.03530
C448        C  0.10421696  0.84266468  0.88290744    -0.10550
H449        H  0.09021320  0.90973580  0.79377378     0.09130
H450        H  0.18833798  0.91576250  0.89551620     0.06660
H451        H  0.09070570  0.81334645  0.89784908     0.06510
O452        O  0.20094004  0.85782422  0.95223551    -0.81380
C453        C  0.22489800  0.71262502  0.06358709     0.97970
O454        O  0.18832726  0.71917022  0.04316349    -0.70500
O455        O  0.15442304  0.80015559  0.05225883    -0.74090
Al456      Al  0.17098050  0.76645312  0.00117813     1.48980
C457        C  0.16432778  0.83903603  0.06383043     0.93220
O458        O  0.27485793  0.83590443  0.05224680    -0.80310
O459        O  0.27835618  0.76703270  0.93926416    -0.73870
Al460      Al  0.23756239  0.84440764  0.00069444     1.90120
O461        O  0.31388924  0.78776226  0.01732254    -0.72940
O462        O  0.23928216  0.70028316  0.97470710    -0.72790
O463        O  0.25947325  0.73214246  0.05241023    -0.78450
O464        O  0.18014458  0.73015527  0.94855014    -0.76660
O465        O  0.22478591  0.78752960  0.99943293    -1.12790
O466        O  0.14716100  0.80992088  0.96071376    -0.71980
C467        C  0.16403947  0.84256764  0.94062782     0.98730
C468        C  0.30723864  0.80984197  0.05146128     0.95130
Al469      Al  0.26916752  0.74990086  0.99608736     1.55560
O470        O  0.19304546  0.86039546  0.04261839    -0.76610
C471        C  0.20993741  0.70117381  0.94617888     0.99300
C472        C  0.29310924  0.80473170  0.93096362     0.94180
O473        O  0.28548066  0.83789463  0.95625250    -0.81930
O474        O  0.03537330  0.85068111  0.22147456    -0.81380
C475        C  0.91337838  0.71343807  0.22767484     0.97970
O476        O  0.93909579  0.71789097  0.19431070    -0.70500
O477        O  0.94012058  0.80051875  0.16657458    -0.74090
Al478      Al  0.98679610  0.76190473  0.18478267     1.48980
C479        C  0.92566595  0.83693320  0.18136717     0.93220
O480        O  0.93437040  0.82692550  0.29629851    -0.80310
O481        O  0.03821097  0.74669628  0.29546792    -0.73870
Al482      Al  0.98612550  0.83446720  0.25783084     1.90120
O483        O  0.96375356  0.77172791  0.32934020    -0.72940
O484        O  0.99693973  0.68867177  0.24605315    -0.72790
O485        O  0.92251990  0.72953585  0.26494280    -0.78450
O486        O  0.03657450  0.72085262  0.19765468    -0.76660
O487        O  0.98468916  0.77920744  0.24014705    -1.12790
O488        O  0.03174420  0.80305787  0.16714429    -0.71980
C489        C  0.04965873  0.83632572  0.18501383     0.98730
C490        C  0.93369416  0.79932553  0.32729806     0.95130
Al491      Al  0.98059304  0.73761120  0.28063021     1.55560
O492        O  0.94343692  0.85472486  0.21489271    -0.76610
C493        C  0.03220819  0.68999686  0.22541974     0.99300
C494        C  0.05120577  0.78294533  0.31112529     0.94180
O495        O  0.03094176  0.81969204  0.30385723    -0.81930
C496        C  0.14321570  0.85979925  0.10345141     0.03540
C497        C  0.10672814  0.84011468  0.12432947    -0.12610
C498        C  0.08810612  0.85848377  0.16293337     0.01040
C499        C  0.10712826  0.89737922  0.18067363    -0.11130
C500        C  0.14386439  0.91778565  0.16051147     0.03530
C501        C  0.16112578  0.89866095  0.12180166    -0.10550
H502        H  0.09302733  0.81008848  0.11063541     0.09130
H503        H  0.09376244  0.91138708  0.21063152     0.06660
H504        H  0.18961645  0.91353408  0.10640700     0.06510
O505        O  0.76839798  0.84839481  0.05224404    -0.81380
C506        C  0.75682761  0.71097673  0.93024793     0.97970
O507        O  0.79104712  0.71497546  0.95497318    -0.70500
O508        O  0.82158207  0.79728376  0.95512542    -0.74090
Al509      Al  0.80290873  0.75951613  0.00224742     1.48980
C510        C  0.80841083  0.83483907  0.94226798     0.93220
O511        O  0.69414757  0.82783125  0.95067792    -0.80310
O512        O  0.69204911  0.74855362  0.05601888    -0.73870
Al513      Al  0.73208621  0.83419200  0.00284635     1.90120
O514        O  0.65858011  0.77419961  0.98010140    -0.72940
O515        O  0.73915094  0.68880318  0.01412982    -0.72790
O516        O  0.72069184  0.72910336  0.93974386    -0.78450
O517        O  0.78958124  0.71946445  0.05246216    -0.76660
O518        O  0.74799535  0.77849675  0.00106362    -1.12790
O519        O  0.82263349  0.80074141  0.04681879    -0.71980
C520        C  0.80505659  0.83379390  0.06559538     0.98730
C521        C  0.66237705  0.80113589  0.94956187     0.95130
Al522      Al  0.70597629  0.73839064  0.99776355     1.55560
O523        O  0.77598752  0.85352744  0.96107598    -0.76610
C524        C  0.76029887  0.68988055  0.04902208     0.99300
C525        C  0.67709126  0.78530836  0.06844205     0.94180
O526        O  0.68499607  0.82120580  0.04709181    -0.81930
C527        C  0.88614892  0.85800098  0.15998729     0.03540
C528        C  0.86616579  0.83832472  0.12267200    -0.12610
C529        C  0.82724709  0.85579752  0.10404458     0.01040
C530        C  0.80855781  0.89399537  0.12319064    -0.11130
C531        C  0.82743388  0.91441017  0.16042939     0.03530
C532        C  0.86627282  0.89604170  0.17847583    -0.10550
H533        H  0.88047442  0.80873496  0.10854961     0.09130
H534        H  0.77852356  0.90750648  0.10950172     0.06660
H535        H  0.88069373  0.91101780  0.20745094     0.06510
O536        O  0.14331963  0.23069365  0.95899622    -0.81380
C537        C  0.27974263  0.25993750  0.07537249     0.97970
O538        O  0.27651083  0.22289316  0.05424610    -0.70500
O539        O  0.19757906  0.18585788  0.05249354    -0.74090
Al540      Al  0.23569479  0.20470161  0.00615630     1.48980
C541        C  0.16132804  0.19968778  0.06761077     0.93220
O542        O  0.16633176  0.31612387  0.05157638    -0.80310
O543        O  0.24184095  0.30808258  0.94377325    -0.73870
Al544      Al  0.15854874  0.27225742  0.00342041     1.90120
O545        O  0.21389251  0.35009293  0.01325134    -0.72940
O546        O  0.30481884  0.27130518  0.99080280    -0.72790
O547        O  0.26260786  0.29499555  0.06108873    -0.78450
O548        O  0.27743333  0.21547100  0.95751946    -0.76660
O549        O  0.21466528  0.25849386  0.00397374    -1.12790
O550        O  0.19684065  0.18178937  0.96054030    -0.71980
C551        C  0.16115511  0.19616685  0.94387749     0.98730
C552        C  0.19239015  0.34834016  0.04787607     0.95130
Al553      Al  0.25272477  0.30264060  0.00238817     1.55560
O554        O  0.14239654  0.23268929  0.05025902    -0.76610
C555        C  0.30601913  0.24573047  0.95896486     0.99300
C556        C  0.20414921  0.31782705  0.92936860     0.94180
O557        O  0.16897740  0.31283102  0.95284400    -0.81930
O558        O  0.15463322  0.06681940  0.22203398    -0.81380
C559        C  0.29325093  0.94479287  0.22155318     0.97970
O560        O  0.28662615  0.97040742  0.18837811    -0.70500
O561        O  0.20209441  0.97123691  0.16476852    -0.74090
Al562      Al  0.24151136  0.01823219  0.18111650     1.48980
C563        C  0.16633522  0.95704487  0.18109840     0.93220
O564        O  0.18267261  0.96536412  0.29512024    -0.80310
O565        O  0.26135842  0.07006506  0.29117012    -0.73870
Al566      Al  0.17260475  0.01737797  0.25740043     1.90120
O567        O  0.23908501  0.99508961  0.32514205    -0.72940
O568        O  0.31733740  0.02861770  0.23883021    -0.72790
O569        O  0.27777452  0.95384822  0.25893563    -0.78450
O570        O  0.28266860  0.06870771  0.19256033    -0.76660
O571        O  0.22685419  0.01614863  0.23707623    -1.12790
O572        O  0.19946332  0.06314064  0.16555129    -0.71980
C573        C  0.16726714  0.08119190  0.18504593     0.98730
C574        C  0.21343307  0.96353758  0.32304516     0.95130
Al575      Al  0.27033899  0.01223041  0.27538369     1.55560
O576        O  0.15031703  0.97489818  0.21540282    -0.76610
C577        C  0.31463550  0.06430692  0.21909638     0.99300
C578        C  0.22570191  0.08259979  0.30841698     0.94180
O579        O  0.18914062  0.06187683  0.30275934    -0.81930
O580        O  0.03272334  0.23399054  0.17377032    -0.81380
C581        C  0.91091059  0.23941484  0.31004637     0.97970
O582        O  0.93517501  0.20491109  0.30507252    -0.70500
O583        O  0.93649931  0.17934142  0.22084814    -0.74090
Al584      Al  0.98266165  0.19517771  0.26031787     1.48980
C585        C  0.92383076  0.19486281  0.18430061     0.93220
O586        O  0.93250678  0.30972242  0.19883678    -0.80310
O587        O  0.03711086  0.30476456  0.27758788    -0.73870
Al588      Al  0.98405645  0.27058274  0.18990450     1.90120
O589        O  0.96289104  0.34072697  0.25447981    -0.72940
O590        O  0.99508674  0.25567134  0.33474218    -0.72790
O591        O  0.92117801  0.27569069  0.29322462    -0.78450
O592        O  0.03182707  0.20529498  0.30149157    -0.76660
O593        O  0.98235264  0.25119989  0.24438215    -1.12790
O594        O  0.02758859  0.17776428  0.21904123    -0.71980
C595        C  0.04638852  0.19688689  0.18714664     0.98730
C596        C  0.93131050  0.33871299  0.22886140     0.95130
Al597      Al  0.97919802  0.29082783  0.28652630     1.55560
O598        O  0.94201649  0.22871414  0.16805025    -0.76610
C599        C  0.02956901  0.23393723  0.33184242     0.99300
C600        C  0.05023453  0.32067378  0.24171927     0.94180
O601        O  0.02884707  0.31554393  0.20549509    -0.81930
C602        C  0.14446181  0.12009866  0.16440774     0.03540
C603        C  0.16154903  0.13988365  0.12592788    -0.12610
C604        C  0.14147539  0.17746091  0.10695348     0.01040
C605        C  0.10349584  0.19499247  0.12704697    -0.11130
C606        C  0.08554897  0.17608439  0.16541725     0.03530
C607        C  0.10629683  0.13857873  0.18368984    -0.10550
H608        H  0.19102776  0.12642431  0.11110457     0.09130
H609        H  0.08813795  0.22405991  0.11305624     0.06660
H610        H  0.09305556  0.12412622  0.21343582     0.06510
O611        O  0.82389495  0.23035353  0.04533506    -0.81380
C612        C  0.65990867  0.22854505  0.95713887     0.97970
O613        O  0.69183163  0.20203312  0.95698134    -0.70500
O614        O  0.77399865  0.17697395  0.96231221    -0.74090
Al615      Al  0.73169065  0.19631136  0.00642216     1.48980
C616        C  0.80476244  0.19636956  0.94166815     0.93220
O617        O  0.78546807  0.31635455  0.95515825    -0.80310
O618        O  0.73668630  0.34228057  0.01843149    -0.73870
Al619      Al  0.80109458  0.27169489  0.00137924     1.90120
O620        O  0.71435272  0.30279893  0.94409779    -0.72940
O621        O  0.69313089  0.28131159  0.06243418    -0.72790
O622        O  0.65638529  0.25468713  0.98854732    -0.78450
O623        O  0.68650695  0.20872983  0.05299784    -0.76660
O624        O  0.74647600  0.25243085  0.00378996    -1.12790
O625        O  0.76986611  0.18310808  0.05352236    -0.71980
C626        C  0.80691796  0.19760027  0.06520726     0.98730
C627        C  0.74967603  0.32155874  0.93279400     0.95130
Al628      Al  0.70355920  0.29209463  0.00338671     1.55560
O629        O  0.81719473  0.23435736  0.95351911    -0.76610
C630        C  0.67871654  0.24438710  0.07507810     0.99300
C631        C  0.76264932  0.34172243  0.05006547     0.94180
O632        O  0.79150249  0.31166026  0.05116824    -0.81930
O633        O  0.81784370  0.96673995  0.21895336    -0.81380
C634        C  0.68174185  0.08985357  0.22311134     0.97970
O635        O  0.68730266  0.06570197  0.18851342    -0.70500
O636        O  0.77068984  0.06436363  0.16399795    -0.74090
Al637      Al  0.73181758  0.01770220  0.17882745     1.48980
C638        C  0.80684204  0.07740201  0.17988038     0.93220
O639        O  0.79071419  0.06700107  0.29389669    -0.80310
O640        O  0.71218622  0.96166885  0.28704748    -0.73870
Al641      Al  0.80061434  0.01565385  0.25518269     1.90120
O642        O  0.73493998  0.03614307  0.32395396    -0.72940
O643        O  0.65606509  0.00462601  0.23610788    -0.72790
O644        O  0.69563149  0.07812865  0.26018418    -0.78450
O645        O  0.69119794  0.96781422  0.18751571    -0.76660
O646        O  0.74640527  0.01755378  0.23498846    -1.12790
O647        O  0.77383162  0.97286058  0.16189186    -0.71980
C648        C  0.80536704  0.95358367  0.18142584     0.98730
C649        C  0.76036497  0.06803798  0.32232365     0.95130
Al650      Al  0.70306646  0.01990989  0.27369982     1.55560
O651        O  0.82315190  0.05866114  0.21358331    -0.76610
C652        C  0.65994913  0.96974588  0.21491031     0.99300
C653        C  0.74740244  0.94953002  0.30522488     0.94180
O654        O  0.78400081  0.97042118  0.30009576    -0.81930
C655        C  0.82945487  0.17542327  0.10326687     0.03540
C656        C  0.86731159  0.19337017  0.12315145    -0.12610
C657        C  0.88613433  0.17369009  0.16093250     0.01040
C658        C  0.86693421  0.13505013  0.17828219    -0.11130
C659        C  0.82925057  0.11625764  0.15914296     0.03530
C660        C  0.81100830  0.13672467  0.12160563    -0.10550
H661        H  0.88129296  0.22353025  0.11004054     0.09130
H662        H  0.88070116  0.12016009  0.20758603     0.06660
H663        H  0.78167231  0.12285351  0.10704225     0.06510
C664        C  0.83028421  0.85656160  0.90352771     0.03540
C665        C  0.81221580  0.89517722  0.88472025    -0.12610
C666        C  0.83011823  0.91424254  0.84621822     0.01040
C667        C  0.86730770  0.89403077  0.82683077    -0.11130
C668        C  0.88642804  0.85547008  0.84493138     0.03530
C669        C  0.86753553  0.83723881  0.88328548    -0.10550
H670        H  0.78322707  0.90978218  0.89948966     0.09130
H671        H  0.88095546  0.90795312  0.79706558     0.06660
H672        H  0.88142225  0.80728892  0.89698968     0.06510
C673        C  0.25084194  0.19284279  0.35540156     0.24010
C674        C  0.27254234  0.18008551  0.39434038    -0.24100
C675        C  0.27495293  0.13539416  0.40544646     0.18920
C676        C  0.25382235  0.10413848  0.37956488     0.23950
C677        C  0.23151102  0.11678413  0.34114512    -0.24040
C678        C  0.23099042  0.16114697  0.32852135     0.18850
F679        F  0.21167146  0.17349918  0.29018399    -0.14000
F680        F  0.24628812  0.23625181  0.34532302    -0.16360
F681        F  0.25637496  0.06095428  0.39118522    -0.16370
F682        F  0.29386462  0.12250459  0.44384018    -0.14000
C683        C  0.13392262  0.23099362  0.39909081     0.24010
C684        C  0.13727400  0.27515468  0.41472381    -0.24100
C685        C  0.10574645  0.30573906  0.40139270     0.18920
C686        C  0.07039878  0.29211413  0.37521775     0.23950
C687        C  0.06735412  0.24789654  0.35945818    -0.24040
C688        C  0.10038006  0.21813079  0.37056962     0.18850
F689        F  0.09840680  0.17553560  0.35667981    -0.14000
F690        F  0.16115961  0.19879598  0.41341394    -0.16360
F691        F  0.03870306  0.32240961  0.36650476    -0.16370
F692        F  0.10685602  0.34777726  0.41695177    -0.14000
C693        C  0.16676384  0.25869537  0.64825902     0.24010
C694        C  0.15260471  0.26819254  0.60538893    -0.24100
C695        C  0.10931527  0.25888097  0.59276045     0.18920
C696        C  0.08003217  0.24120428  0.62292083     0.23950
C697        C  0.09316164  0.23431896  0.66655119    -0.24040
C698        C  0.13678685  0.24265759  0.67910928     0.18850
F699        F  0.14978335  0.23625562  0.72134707    -0.14000
F700        F  0.20944211  0.26482439  0.65992939    -0.16360
F701        F  0.03787213  0.23363399  0.61030145    -0.16370
F702        F  0.09589210  0.26550291  0.55064040    -0.14000
C703        C  0.20135070  0.10383698  0.60901462     0.24010
C704        C  0.20876500  0.11300930  0.65338915    -0.24100
C705        C  0.23809345  0.14732868  0.66452437     0.18360
C706        C  0.26152215  0.17023970  0.63173781     0.23950
C707        C  0.25599993  0.15906026  0.58712506    -0.24040
C708        C  0.22479492  0.12586076  0.57642816     0.18850
F709        F  0.21704507  0.11375305  0.53405123    -0.14000
F710        F  0.17399910  0.07038543  0.59730041    -0.16360
F711        F  0.28964438  0.20289835  0.64367619    -0.16370
F712        F  0.24586519  0.15694089  0.70737355    -0.14000
C713        C  0.39268435  0.13152775  0.73144730     0.24010
C714        C  0.38148685  0.17624535  0.72925168    -0.24100
C715        C  0.34335889  0.19131274  0.75095767     0.18920
C716        C  0.31733066  0.16208063  0.77498532     0.23950
C717        C  0.32911137  0.11747607  0.77776890    -0.24040
C718        C  0.36748132  0.10268857  0.75646371     0.18850
F719        F  0.37871452  0.05932671  0.75713890    -0.14000
F720        F  0.43017928  0.11650793  0.71226714    -0.16360
F721        F  0.27949162  0.17672381  0.79381972    -0.16370
F722        F  0.33322586  0.23498775  0.75125568    -0.14000
C723        C  0.62583168  0.25135750  0.84097063     0.24010
C724        C  0.58581272  0.27356126  0.84765346    -0.24100
C725        C  0.56864689  0.27704944  0.89026550     0.18920
C726        C  0.59096486  0.25829907  0.92557895     0.23950
C727        C  0.63129345  0.23618482  0.91901582    -0.24040
C728        C  0.64834499  0.23244210  0.87628354     0.18850
F729        F  0.68807636  0.21317546  0.86900758    -0.14000
F730        F  0.64353119  0.24890196  0.80018557    -0.16360
F731        F  0.57322767  0.26200126  0.96646368    -0.16370
F732        F  0.52873228  0.29603782  0.89732588    -0.14000
C733        C  0.55816632  0.10960929  0.73847471     0.24010
C734        C  0.57191915  0.15252585  0.72772621    -0.24100
C735        C  0.61413124  0.16601427  0.74110798     0.18920
C736        C  0.64130261  0.13758276  0.76619194     0.23950
C737        C  0.62679496  0.09480550  0.77739352    -0.24040
C738        C  0.58478401  0.08153747  0.76314224     0.18850
F739        F  0.56970261  0.04038677  0.77228454    -0.14000
F740        F  0.51767897  0.09523866  0.72623467    -0.16360
F741        F  0.68260281  0.15072727  0.77694674    -0.16370
F742        F  0.62896473  0.20650284  0.72952300    -0.14000
C743        C  0.38419509  0.23382468  0.86268675     0.24010
C744        C  0.39956929  0.27770721  0.85719368    -0.24100
C745        C  0.38318032  0.31065390  0.88480764     0.18920
C746        C  0.35318932  0.29996718  0.91798826     0.23950
C747        C  0.33739888  0.25610992  0.92306547    -0.24040
C748        C  0.35236483  0.22357894  0.89417046     0.18850
F749        F  0.33814158  0.18129846  0.89793014    -0.14000
F750        F  0.40104998  0.19990989  0.83902117    -0.16360
F751        F  0.34006658  0.33289922  0.94538444    -0.16370
F752        F  0.39860465  0.35256274  0.88182518    -0.14000
C753        C  0.72614058  0.66408075  0.82233967     0.24010
C754        C  0.70394330  0.62594496  0.83679237    -0.24100
C755        C  0.70550987  0.61454911  0.88122225     0.18920
C756        C  0.73134873  0.63872372  0.91011041     0.23950
C757        C  0.75251418  0.67743556  0.89642546    -0.24040
C758        C  0.74947604  0.69025792  0.85229094     0.18850
F759        F  0.76876471  0.72816271  0.83852620    -0.14000
F760        F  0.72784914  0.67386472  0.77879241    -0.16360
F761        F  0.73392408  0.62542696  0.95244906    -0.16370
F762        F  0.68615484  0.57686321  0.89562634    -0.14000
C763        C  0.83960674  0.61827393  0.78635561     0.24010
C764        C  0.83729137  0.60068199  0.74301909    -0.24100
C765        C  0.87106333  0.61029385  0.71363099     0.18920
C766        C  0.90622650  0.63679265  0.72701225     0.23950
C767        C  0.90702497  0.65650758  0.76962744    -0.24040
C768        C  0.87298485  0.64725692  0.79877084     0.18850
F769        F  0.87319206  0.66424446  0.84017565    -0.14000
F770        F  0.81123502  0.60586795  0.81815264    -0.16360
F771        F  0.93907400  0.64350194  0.69754147    -0.16370
F772        F  0.87160560  0.59161784  0.67296118    -0.14000
C773        C  0.85863934  0.42078678  0.72404585     0.24010
C774        C  0.81698147  0.41253233  0.74179301    -0.24100
C775        C  0.81091536  0.37642265  0.77023469     0.18920
C776        C  0.84644924  0.34952440  0.78168788     0.23950
C777        C  0.88814904  0.35877241  0.76475983    -0.24040
C778        C  0.89396497  0.39421663  0.73562539     0.18850
F779        F  0.93421342  0.40297071  0.71827405    -0.14000
F780        F  0.86582208  0.45623639  0.69776074    -0.16360
F781        F  0.84000059  0.31392670  0.80793199    -0.16370
F782        F  0.77059347  0.36746835  0.78688691    -0.14000
C783        C  0.73919039  0.43536264  0.88857401     0.24010
C784        C  0.70656549  0.42974766  0.85555296    -0.24100
C785        C  0.69420710  0.38667659  0.84396320     0.18920
C786        C  0.71318510  0.35047245  0.86548750     0.23950
C787        C  0.74429377  0.35636113  0.89941578    -0.24040
C788        C  0.75799709  0.39913960  0.90977057     0.18850
F789        F  0.78706041  0.40625055  0.94299531    -0.14000
F790        F  0.75289834  0.47616568  0.90108775    -0.16360
F791        F  0.70072057  0.30928606  0.85371705    -0.16370
F792        F  0.66457211  0.37942267  0.81131446    -0.14000
C793        C  0.64285653  0.77310763  0.87475264     0.24010
C794        C  0.63076114  0.79653899  0.91307965    -0.24100
C795        C  0.58616141  0.79979724  0.92379005     0.18920
C796        C  0.55440391  0.77849352  0.89848838     0.23950
C797        C  0.56607431  0.75378978  0.86068356    -0.24040
C798        C  0.61078066  0.75192610  0.84865571     0.18850
F799        F  0.62334746  0.73033524  0.81151714    -0.14000
F800        F  0.68589054  0.76913447  0.86369804    -0.16360
F801        F  0.51178514  0.78210408  0.91140728    -0.16370
F802        F  0.57344987  0.82193755  0.96054643    -0.14000
C803        C  0.63198096  0.84103839  0.73717718     0.24010
C804        C  0.58809511  0.85467821  0.74034476    -0.24100
C805        C  0.57745909  0.89182585  0.76614565     0.18920
C806        C  0.60991591  0.91553663  0.78765210     0.23950
C807        C  0.65397692  0.90393714  0.78208242    -0.24040
C808        C  0.66490661  0.86590624  0.75761287     0.18850
F809        F  0.70762751  0.85416968  0.75221795    -0.14000
F810        F  0.64261778  0.80328113  0.71545529    -0.16360
F811        F  0.59853779  0.95237582  0.81060749    -0.16370
F812        F  0.53496105  0.90364163  0.77273887    -0.14000
C813        C  0.39116979  0.76002204  0.88157046     0.24010
C814        C  0.37716263  0.75320278  0.83819212    -0.24100
C815        C  0.33727443  0.77207948  0.82416763     0.18920
C816        C  0.31164412  0.79688404  0.85337758     0.23950
C817        C  0.32609235  0.80402646  0.89666719    -0.24040
C818        C  0.36681877  0.78662399  0.90992361     0.18850
F819        F  0.38088326  0.79175789  0.95203348    -0.14000
F820        F  0.43019893  0.74334906  0.89558295    -0.16360
F821        F  0.27148638  0.81166332  0.84041623    -0.16370
F822        F  0.32409013  0.76758269  0.78171581    -0.14000
C823        C  0.41173748  0.91491910  0.75633072     0.24010
C824        C  0.39965248  0.87622187  0.73333236    -0.24100
C825        C  0.35485867  0.86455832  0.73201951     0.18920
C826        C  0.32320500  0.89127099  0.75329540     0.23950
C827        C  0.33618407  0.92919143  0.77704075    -0.24040
C828        C  0.38076688  0.94005579  0.77878088     0.18850
F829        F  0.39409606  0.97705991  0.80029810    -0.14000
F830        F  0.45414816  0.92868480  0.75734245    -0.16360
F831        F  0.27987819  0.88137353  0.74896934    -0.16370
F832        F  0.34186144  0.82739403  0.71069443    -0.14000
C833        C  0.11684082  0.36035506  0.75906790     0.24010
C834        C  0.07744660  0.37242210  0.78049103    -0.24100
C835        C  0.06478692  0.41695378  0.77983459     0.18920
C836        C  0.08950596  0.44830279  0.75702656     0.23950
C837        C  0.12830407  0.43634869  0.73424744    -0.24040
C838        C  0.14215457  0.39196918  0.73630955     0.18850
F839        F  0.18029526  0.37923038  0.71678455    -0.14000
F840        F  0.12932401  0.31739893  0.75785242    -0.16360
F841        F  0.07483815  0.49068326  0.75676692    -0.16370
F842        F  0.02615857  0.42953476  0.79858728    -0.14000
C843        C  0.13807521  0.69159361  0.76912845     0.24010
C844        C  0.09402990  0.67823809  0.76937540    -0.24100
C845        C  0.08165470  0.63975953  0.74662682     0.18920
C846        C  0.11234042  0.61580009  0.72276017     0.23950
C847        C  0.15667928  0.62770731  0.72408475    -0.24040
C848        C  0.16941250  0.66614276  0.74693088     0.18850
F849        F  0.21252429  0.67738209  0.74961433    -0.14000
F850        F  0.15029735  0.72972881  0.78923913    -0.16360
F851        F  0.09940405  0.57813037  0.70216943    -0.16370
F852        F  0.03901232  0.62662242  0.74546569    -0.14000
C853        C  0.25690124  0.64581833  0.84652208     0.24010
C854        C  0.25341517  0.60132466  0.85892620    -0.24100
C855        C  0.23019145  0.59090245  0.89776430     0.18920
C856        C  0.21074624  0.62385809  0.92325866     0.23950
C857        C  0.21402204  0.66819128  0.91101696    -0.24040
C858        C  0.23719673  0.67900506  0.87237020     0.18850
F859        F  0.24245010  0.72186922  0.86085107    -0.14000
F860        F  0.27858668  0.65704768  0.80917733    -0.16360
F861        F  0.19061486  0.61270106  0.96154240    -0.16370
F862        F  0.22616378  0.54834106  0.91112923    -0.14000
C863        C  0.18115809  0.38205955  0.88745470     0.24010
C864        C  0.20512887  0.34292842  0.88860516    -0.24100
C865        C  0.24163886  0.33724734  0.86004336     0.18920
C866        C  0.25682042  0.37234125  0.83458642     0.23950
C867        C  0.23494493  0.41273472  0.83670935    -0.24040
C868        C  0.19640623  0.41694919  0.86254915     0.18850
F869        F  0.17384931  0.45567946  0.86456623    -0.14000
F870        F  0.14593496  0.38842821  0.91424656    -0.16360
F871        F  0.29247715  0.36695960  0.80818301    -0.16370
F872        F  0.26465108  0.29877335  0.85971006    -0.14000
C873        C  0.12190755  0.34022198  0.27346543     0.24010
C874        C  0.08586664  0.35185452  0.24665714    -0.24100
C875        C  0.07584120  0.39625666  0.23973897     0.18920
C876        C  0.10100248  0.42871134  0.25981611     0.23950
C877        C  0.13778824  0.41731243  0.28560639    -0.24040
C878        C  0.14816554  0.37290207  0.29234366     0.18850
F879        F  0.18465867  0.36141216  0.31543287    -0.14000
F880        F  0.13064758  0.29717124  0.28228523    -0.16360
F881        F  0.09140780  0.47166215  0.25140433    -0.16370
F882        F  0.03995227  0.40815166  0.21584505    -0.14000
C883        C  0.25428606  0.43900414  0.10720193     0.24010
C884        C  0.25044319  0.42697187  0.15145205    -0.24100
C885        C  0.22478838  0.38977533  0.16217306     0.18920
C886        C  0.20332411  0.36523623  0.12904580     0.23950
C887        C  0.20660698  0.37794490  0.08460302    -0.24040
C888        C  0.23260763  0.41521987  0.07434405     0.18850
F889        F  0.23721487  0.42897423  0.03208928    -0.14000
F890        F  0.27718627  0.47576227  0.09601573    -0.16360
F891        F  0.18001547  0.32884538  0.14040741    -0.16370
F892        F  0.21875474  0.37851254  0.20493458    -0.14000
C893        C  0.27289993  0.66380581  0.10927844     0.24010
C894        C  0.23019273  0.67957383  0.09842677    -0.24100
C895        C  0.19375600  0.66255801  0.12025079     0.18920
C896        C  0.19951229  0.63064845  0.15239759     0.23950
C897        C  0.24230039  0.61554517  0.16413683    -0.24040
C898        C  0.27876425  0.63235053  0.14199392     0.18850
F899        F  0.32004521  0.61789891  0.15128448    -0.14000
F900        F  0.30931586  0.67766294  0.08741690    -0.16360
F901        F  0.16251576  0.61362494  0.17070629    -0.16370
F902        F  0.15240650  0.67644691  0.11037771    -0.14000
C903        C  0.08479411  0.59524260  0.28646539     0.24010
C904        C  0.12953261  0.60603004  0.28666309    -0.24100
C905        C  0.14308759  0.64478197  0.26486348     0.18920
C906        C  0.11222335  0.67145436  0.24235416     0.23950
C907        C  0.06748847  0.65933230  0.24082109    -0.24040
C908        C  0.05446636  0.62090234  0.26361207     0.18850
F909        F  0.01183195  0.60763357  0.26377790    -0.14000
F910        F  0.07075641  0.55766587  0.30627042    -0.16360
F911        F  0.12599748  0.70900157  0.22243790    -0.16370
F912        F  0.18645518  0.65520881  0.26292031    -0.14000
C913        C  0.31514679  0.78308705  0.12925838     0.24010
C914        C  0.33432174  0.79889771  0.09008601    -0.24100
C915        C  0.37932471  0.79239861  0.08318236     0.18920
C916        C  0.40472502  0.77048602  0.11420632     0.23950
C917        C  0.38646755  0.75501316  0.15363428    -0.24040
C918        C  0.34132794  0.76197313  0.16124585     0.18850
F919        F  0.32296624  0.74910210  0.19981858    -0.14000
F920        F  0.27108571  0.78655305  0.13574060    -0.16360
F921        F  0.44836496  0.76744001  0.10705279    -0.16370
F922        F  0.39883741  0.80732095  0.04587545    -0.14000
C923        C  0.59964745  0.78199920  0.08532343     0.24010
C924        C  0.64258886  0.78151849  0.10153131    -0.24100
C925        C  0.65143230  0.75905324  0.14114857     0.18920
C926        C  0.61732965  0.73868602  0.16476749     0.23950
C927        C  0.57417478  0.73963749  0.14832832    -0.24040
C928        C  0.56641644  0.75990193  0.10741306     0.18850
F929        F  0.52637610  0.75788237  0.08818538    -0.14000
F930        F  0.59064165  0.80013120  0.04554645    -0.16360
F931        F  0.62619964  0.71954183  0.20412547    -0.16370
F932        F  0.69329828  0.75625446  0.15635739    -0.14000
C933        C  0.64715883  0.88764622  0.21954812     0.24010
C934        C  0.63426303  0.93088092  0.23022636    -0.24100
C935        C  0.60098284  0.93685027  0.26247582     0.18920
C936        C  0.57981420  0.90075612  0.28152423     0.23950
C937        C  0.59064043  0.85780820  0.26849329    -0.24040
C938        C  0.62577004  0.85159975  0.23876779     0.18850
F939        F  0.63785656  0.81027451  0.22669207    -0.14000
F940        F  0.68028225  0.88010220  0.19050228    -0.16360
F941        F  0.54590124  0.90806871  0.30972924    -0.16370
F942        F  0.58797848  0.97783886  0.27526551    -0.14000
C943        C  0.35560069  0.85159775  0.26920964     0.24010
C944        C  0.39862315  0.86747052  0.26367495    -0.24100
C945        C  0.40558998  0.90389640  0.23556774     0.18920
C946        C  0.37045687  0.92460139  0.21458135     0.23950
C947        C  0.32733679  0.91067050  0.22243895    -0.24040
C948        C  0.32025881  0.87312827  0.24886052     0.18850
F949        F  0.27861899  0.85968789  0.25785254    -0.14000
F950        F  0.34767061  0.81542792  0.29422997    -0.16360
F951        F  0.37826778  0.96163019  0.19075705    -0.16370
F952        F  0.44660234  0.92044687  0.22915147    -0.14000
C953        C  0.74374439  0.38531169  0.16490552     0.24010
C954        C  0.71598330  0.42166315  0.15635899    -0.24100
C955        C  0.70717069  0.43333970  0.11279968     0.18920
C956        C  0.72587319  0.40943308  0.07831061     0.23950
C957        C  0.75305467  0.37244578  0.08662118    -0.24040
C958        C  0.76214309  0.36085605  0.13033825     0.18850
F959        F  0.78746495  0.32512860  0.13969049    -0.14000
F960        F  0.75438356  0.37469630  0.20698153    -0.16360
F961        F  0.71765870  0.42288625  0.03648477    -0.16370
F962        F  0.68361336  0.47031784  0.10362533    -0.14000
C963        C  0.69243785  0.60250184  0.10609060     0.24010
C964        C  0.69764684  0.61278189  0.15050909    -0.24100
C965        C  0.72401721  0.64923099  0.16204613     0.18920
C966        C  0.74720113  0.67308116  0.12976098     0.23950
C967        C  0.74358968  0.66120643  0.08516442    -0.24040
C968        C  0.71517581  0.62583865  0.07402688     0.18850
F969        F  0.70965446  0.61276447  0.03174641    -0.14000
F970        F  0.66813752  0.56690604  0.09394555    -0.16360
F971        F  0.77269703  0.70772074  0.14206660    -0.16370
F972        F  0.72896523  0.66022497  0.20489669    -0.14000
C973        C  0.80781671  0.66851334  0.26472430     0.24010
C974        C  0.82053360  0.62495495  0.27363646    -0.24100
C975        C  0.86229900  0.61019554  0.26056424     0.18920
C976        C  0.89037200  0.63806928  0.23765326     0.23950
C977        C  0.87785606  0.68165889  0.22880048    -0.24040
C978        C  0.83600980  0.69645799  0.24163353     0.18850
F979        F  0.82303267  0.73827766  0.23239508    -0.14000
F980        F  0.76762194  0.68338636  0.27746180    -0.16360
F981        F  0.93100763  0.62330829  0.22633707    -0.16370
F982        F  0.87489603  0.56780207  0.26774946    -0.14000
C983        C  0.87589839  0.39531916  0.20660741     0.24010
C984        C  0.89336320  0.36767943  0.23876916    -0.24100
C985        C  0.87948444  0.37336147  0.28313357     0.18920
C986        C  0.84842054  0.40509770  0.29462480     0.23950
C987        C  0.83338200  0.43465546  0.26313788    -0.24040
C988        C  0.84732209  0.42944975  0.21876176     0.18850
F989        F  0.83458694  0.45808551  0.18698423    -0.14000
F990        F  0.88964254  0.39199858  0.16421722    -0.16360
F991        F  0.83610187  0.40931860  0.33739997    -0.16370
F992        F  0.89787211  0.35065888  0.31666130    -0.14000
C993        C  0.35476029  0.31401853  0.15807934     0.24010
C994        C  0.37535521  0.27714859  0.17598275    -0.24100
C995        C  0.36093464  0.23421910  0.16360260     0.18920
C996        C  0.32727144  0.22863032  0.13353273     0.23950
C997        C  0.30849817  0.26539745  0.11362792    -0.24040
C998        C  0.32188314  0.30837544  0.12688794     0.18850
F999        F  0.30567637  0.34534046  0.10764312    -0.14000
F1000       F  0.36781547  0.35548777  0.16894588    -0.16360
F1001       F  0.31499745  0.18704204  0.12213155    -0.16370
F1002       F  0.38138528  0.19699643  0.17775158    -0.14000
C1003       C  0.38609127  0.08594574  0.25201401     0.24010
C1004       C  0.34514180  0.09960612  0.23481033    -0.24100
C1005       C  0.33073604  0.14288333  0.24440488     0.18920
C1006       C  0.35773485  0.17208443  0.26890663     0.23950
C1007       C  0.39915210  0.15814849  0.28480936    -0.24040
C1008       C  0.41201113  0.11432725  0.27712671     0.18850
F1009       F  0.45158557  0.09963847  0.29193468    -0.14000
F1010       F  0.40114362  0.04427769  0.24488718    -0.16360
F1011       F  0.34476406  0.21462395  0.27448685    -0.16370
F1012       F  0.29059948  0.15673394  0.23051579    -0.14000
C1013       C  0.63143843  0.18707526  0.27548726     0.24010
C1014       C  0.58726994  0.17434281  0.27366406    -0.24100
C1015       C  0.57524655  0.13792038  0.24734517     0.18920
C1016       C  0.60653494  0.11508123  0.22284229     0.23950
C1017       C  0.65094106  0.12642179  0.22606613    -0.24040
C1018       C  0.66318900  0.16296630  0.25229824     0.18850
F1019       F  0.70635466  0.17304647  0.25794036    -0.14000
F1020       F  0.64348909  0.22344229  0.29871959    -0.16360
F1021       F  0.59393282  0.07912425  0.19922066    -0.16370
F1022       F  0.53233390  0.12631264  0.24299853    -0.14000
C1023       C  0.56867722  0.24173878  0.12834287     0.24010
C1024       C  0.57192069  0.27792878  0.15792781    -0.24100
C1025       C  0.61356934  0.29619645  0.16587005     0.18920
C1026       C  0.65031906  0.28056784  0.14284956     0.23950
C1027       C  0.64625535  0.24679688  0.11102255    -0.24040
C1028       C  0.60546257  0.22633455  0.10542544     0.18850
F1029       F  0.60018862  0.19407461  0.07476862    -0.14000
F1030       F  0.52957637  0.22160704  0.12038891    -0.16360
F1031       F  0.68974202  0.30018807  0.14979759    -0.16370
F1032       F  0.61879238  0.32957499  0.19531170    -0.14000
C1033       C  0.84024614  0.80564328  0.60712378     0.24010
C1034       C  0.81672197  0.76540365  0.60480735    -0.24100
C1035       C  0.82159219  0.73423296  0.63803386     0.18920
C1036       C  0.85083814  0.74247989  0.67235727     0.23950
C1037       C  0.87731177  0.78090070  0.67242880    -0.24040
C1038       C  0.87019400  0.81326898  0.64065581     0.18850
F1039       F  0.89420898  0.85101552  0.64011780    -0.14000
F1040       F  0.83602318  0.83703092  0.57554587    -0.16360
F1041       F  0.85393441  0.71239483  0.70506818    -0.16370
F1042       F  0.79800117  0.69621407  0.63745056    -0.14000
C1043       C  0.72534823  0.85978006  0.62439799     0.24010
C1044       C  0.70680178  0.87634333  0.58511737    -0.24100
C1045       C  0.71290268  0.92104433  0.57505731     0.18920
C1046       C  0.73597947  0.94878307  0.60351863     0.23950
C1047       C  0.75378053  0.93288460  0.64334721    -0.24040
C1048       C  0.74914723  0.88777869  0.65299766     0.18850
F1049       F  0.76658557  0.87118636  0.69054847    -0.14000
F1050       F  0.72190841  0.81626233  0.63423796    -0.16360
F1051       F  0.73941134  0.99219106  0.59293740    -0.16370
F1052       F  0.69677447  0.93786702  0.53691564    -0.14000
C1053       C  0.72408531  0.83959839  0.35357527     0.24010
C1054       C  0.70067903  0.85221018  0.39158828    -0.24100
C1055       C  0.69491922  0.89695944  0.40110935     0.18920
C1056       C  0.71513649  0.92857167  0.37504078     0.23950
C1057       C  0.74064029  0.91599223  0.33839808    -0.24040
C1058       C  0.74394644  0.87138206  0.32700973     0.18850
F1059       F  0.76554075  0.85886422  0.28989487    -0.14000
F1060       F  0.72922235  0.79629259  0.34355736    -0.16360
F1061       F  0.70864061  0.97186951  0.38476048    -0.16370
F1062       F  0.67298947  0.90991085  0.43790461    -0.14000
C1063       C  0.82876782  0.75479867  0.37426927     0.24010
C1064       C  0.84009637  0.75084356  0.41888310    -0.24100
C1065       C  0.88092324  0.76775223  0.43303501     0.18920
C1066       C  0.90933479  0.78848681  0.40361248     0.23950
C1067       C  0.89770857  0.79353597  0.35923225    -0.24040
C1068       C  0.85693287  0.77693828  0.34491583     0.18850
F1069       F  0.84526959  0.78082292  0.30213942    -0.14000
F1070       F  0.79013663  0.73813579  0.35945636    -0.16360
F1071       F  0.94918234  0.80256727  0.41818695    -0.16370
F1072       F  0.89295056  0.76492705  0.47600638    -0.14000
C1073       C  0.70549019  0.11518589  0.36239968     0.24010
C1074       C  0.74994280  0.10643573  0.35064620    -0.24100
C1075       C  0.78309252  0.13273190  0.36845616     0.18920
C1076       C  0.77259815  0.16456065  0.40009625     0.23950
C1077       C  0.72831296  0.17223210  0.41284879    -0.24040
C1078       C  0.69488307  0.14842206  0.39242409     0.18850
F1079       F  0.65221036  0.15481505  0.40409942    -0.14000
F1080       F  0.67187350  0.09074249  0.34608274    -0.16360
F1081       F  0.80630166  0.18650918  0.41939382    -0.16370
F1082       F  0.82587890  0.12554413  0.35772455    -0.14000
C1083       C  0.77960702  0.13599643  0.64884967     0.24010
C1084       C  0.74282183  0.11895375  0.67031902    -0.24100
C1085       C  0.70024140  0.13430080  0.65842091     0.18920
C1086       C  0.69496166  0.16685285  0.62685341     0.23950
C1087       C  0.73168392  0.18329463  0.60508767    -0.24040
C1088       C  0.77415953  0.16723069  0.61606755     0.18850
F1089       F  0.81068637  0.17997353  0.59370866    -0.14000
F1090       F  0.82077945  0.12105666  0.65788975    -0.16360
F1091       F  0.65383340  0.18132524  0.61687237    -0.16370
F1092       F  0.66309495  0.11600628  0.67494004    -0.14000
C1093       C  0.88771555  0.30463541  0.58361348     0.24010
C1094       C  0.84274071  0.30368739  0.59326679    -0.24100
C1095       C  0.82878200  0.28002262  0.63076259     0.18920
C1096       C  0.85944419  0.25685064  0.65717364     0.23950
C1097       C  0.90453188  0.25663936  0.64623880    -0.24040
C1098       C  0.91792930  0.28134003  0.60909664     0.18850
F1099       F  0.96082237  0.28287847  0.59672539    -0.14000
F1100       F  0.90224743  0.32619116  0.54728660    -0.16360
F1101       F  0.84507959  0.23495637  0.69330067    -0.16370
F1102       F  0.78527726  0.27727917  0.64039581    -0.14000
C1103       C  0.81271477  0.28997696  0.35836789     0.24010
C1104       C  0.82924675  0.30053110  0.40025560    -0.24100
C1105       C  0.87026633  0.28329521  0.41295200     0.18920
C1106       C  0.89289845  0.25401858  0.38565955     0.23950
C1107       C  0.87706207  0.24430116  0.34338786    -0.24040
C1108       C  0.83661486  0.26250828  0.33001043     0.18850
F1109       F  0.82167458  0.25561167  0.28844538    -0.14000
F1110       F  0.77199819  0.30392888  0.34626637    -0.16360
F1111       F  0.93236780  0.23794400  0.39919111    -0.16370
F1112       F  0.88604044  0.29095698  0.45409011    -0.14000
C1113       C  0.10595990  0.73207541  0.40618146     0.24010
C1114       C  0.15037230  0.73588932  0.39488758    -0.24100
C1115       C  0.16221546  0.75964013  0.35686413     0.18920
C1116       C  0.12989637  0.77968404  0.33088838     0.23950
C1117       C  0.08570850  0.77762370  0.34367382    -0.24040
C1118       C  0.07406624  0.75354083  0.38140236     0.18850
F1119       F  0.03116347  0.74914165  0.39308135    -0.14000
F1120       F  0.09379111  0.71090246  0.44357976    -0.16360
F1121       F  0.14146564  0.80021296  0.29297519    -0.16370
F1122       F  0.20528638  0.76534270  0.34648531    -0.14000
C1123       C  0.26415192  0.89087588  0.60051979     0.24010
C1124       C  0.24421964  0.84984427  0.60687766    -0.24100
C1125       C  0.21197730  0.84512651  0.63979845     0.18920
C1126       C  0.19830075  0.88126598  0.66474553     0.23950
C1127       C  0.21763593  0.92227516  0.65763984    -0.24040
C1128       C  0.25085472  0.92684726  0.62562782     0.18850
F1129       F  0.27133410  0.96620999  0.61964104    -0.14000
F1130       F  0.29496446  0.89671564  0.56870955    -0.16360
F1131       F  0.16804467  0.87582847  0.69714575    -0.16370
F1132       F  0.19409026  0.80524912  0.64789271    -0.14000
C1133       C  0.10959011  0.76225704  0.65952311     0.24010
C1134       C  0.07243337  0.78671045  0.64593287    -0.24100
C1135       C  0.06134542  0.78647189  0.60128207     0.18920
C1136       C  0.08637264  0.76274339  0.57088932     0.23950
C1137       C  0.12408492  0.73856002  0.58398688    -0.24040
C1138       C  0.13476104  0.73770171  0.62895868     0.18850
F1139       F  0.17087561  0.71538285  0.64300926    -0.14000
F1140       F  0.12149640  0.76205379  0.70247489    -0.16360
F1141       F  0.07376206  0.76405746  0.52801040    -0.16370
F1142       F  0.02467414  0.80796621  0.58728648    -0.14000
C1143       C  0.20203525  0.87305894  0.40666609     0.24010
C1144       C  0.24681844  0.86297346  0.41593393    -0.24100
C1145       C  0.27961373  0.88245149  0.39074052     0.18920
C1146       C  0.26843204  0.91408833  0.35950489     0.23950
C1147       C  0.22374320  0.92510137  0.35097418    -0.24040
C1148       C  0.19074115  0.90295422  0.37365985     0.18850
F1149       F  0.14774871  0.91299158  0.36663872    -0.14000
F1150       F  0.16874520  0.85548479  0.43050797    -0.16360
F1151       F  0.30199184  0.93534929  0.33938147    -0.16370
F1152       F  0.32269452  0.87370925  0.39884625    -0.14000
loop_ 
_geom_bond_atom_site_label_1 
_geom_bond_atom_site_label_2 
_geom_bond_distance 
_geom_bond_site_symmetry_2 
_ccdc_geom_bond_type 
O1           C16   1.266       .  A
O1           Al9   1.919       .  S
C2           O12   1.259       .  A
C2            O3   1.289       .  A
C2         C1114   1.451       .  S
O3           Al5   1.996       .  S
O4            C6   1.269       .  A
O4           Al5   1.920       .  S
Al5          O13   2.002       .  S
Al5          O15   1.925       .  S
Al5          O14   1.759       .  S
C6           O19   1.267       .  A
C6          C312   1.505       .  S
O7           C17   1.264       .  A
O7           Al9   1.969       .  S
O8           C21   1.268       .  A
O8          Al18   1.855       .  S
Al9          O22   1.979       .  S
Al9          O19   1.929       .  S
Al9          O14   1.760       .  S
O10          C17   1.238       .  A
O10         Al18   1.870       .  S
O11          C20   1.238       .  A
O11         Al18   1.872       .  S
O12         Al18   1.843       .  S
O13          C20   1.268       .  A
O14         Al18   1.767       .  S
O15          C16   1.268       .  A
C16         C303   1.503       .  S
C17        C1144   1.477       .  S
C20        C1137   1.492       .  S
C21          O22   1.289       .  A
C21        C1124   1.460       .  S
O23          C38   1.264       .  A
O23         Al31   1.914       .  S
C24          O34   1.251       .  A
C24          O25   1.286       .  A
C24        C1104   1.448       .  S
O25         Al27   2.006       .  S
O26          C28   1.268       .  A
O26         Al27   1.917       .  S
Al27         O35   1.981       .  S
Al27         O37   1.923       .  S
Al27         O36   1.762       .  S
C28          O41   1.271       .  A
C28         C330   1.507       .  S
O29          C39   1.264       .  A
O29         Al31   1.958       .  S
O30          C43   1.255       .  A
O30         Al40   1.817       .  S
Al31         O44   1.989       .  S
Al31         O41   1.942       .  S
Al31         O36   1.762       .  S
O32          C39   1.243       .  A
O32         Al40   1.875       .  S
O33          C42   1.245       .  A
O33         Al40   1.885       .  S
O34         Al40   1.813       .  S
O35          C42   1.265       .  A
O36         Al40   1.764       .  S
O37          C38   1.268       .  A
C38         C283   1.499       .  S
C39        C1077   1.475       .  S
C42        C1094   1.482       .  S
C43          O44   1.288       .  A
C43        C1087   1.462       .  S
O45          C60   1.265       .  A
O45         Al53   1.906       .  S
C46          O56   1.259       .  A
C46          O47   1.292       .  A
C46        C1034   1.459       .  S
O47         Al49   2.001       .  S
O48          C50   1.266       .  A
O48         Al49   1.928       .  S
Al49         O57   1.981       .  S
Al49         O59   1.949       .  S
Al49         O58   1.757       .  S
C50          O63   1.266       .  A
C50         C294   1.505       .  S
O51          C61   1.263       .  A
O51         Al53   1.977       .  S
O52          C65   1.262       .  A
O52         Al62   1.838       .  S
Al53         O66   1.992       .  S
Al53         O63   1.920       .  S
Al53         O58   1.760       .  S
O54          C61   1.245       .  A
O54         Al62   1.894       .  S
O55          C64   1.239       .  A
O55         Al62   1.869       .  S
O56         Al62   1.821       .  S
O57          C64   1.265       .  A
O58         Al62   1.769       .  S
O59          C60   1.274       .  A
C60         C319   1.505       .  S
C61        C1044   1.483       .  S
C64        C1064   1.479       .  S
C65          O66   1.289       .  A
C65        C1054   1.451       .  S
O67          C82   1.262       .  A
O67         Al75   1.901       .  S
C68          O78   1.256       .  A
C68          O69   1.291       .  A
C68        C1014   1.451       .  S
O69         Al71   2.015       .  S
O70          C72   1.267       .  A
O70         Al71   1.917       .  S
Al71         O79   1.988       .  S
Al71         O81   1.937       .  S
Al71         O80   1.755       .  S
C72          O85   1.271       .  A
C72         C332   1.505       .  S
O73          C83   1.262       .  A
O73         Al75   1.961       .  S
O74          C87   1.253       .  A
O74         Al84   1.806       .  S
Al75         O88   2.003       .  S
Al75         O85   1.937       .  S
Al75         O80   1.762       .  S
O76          C83   1.242       .  A
O76         Al84   1.886       .  S
O77          C86   1.244       .  A
O77         Al84   1.886       .  S
O78         Al84   1.823       .  S
O79          C86   1.265       .  A
O80         Al84   1.765       .  S
O81          C82   1.272       .  A
C82         C276   1.499       .  S
C83        C1024   1.487       .  S
C86        C1007   1.484       .  S
C87          O88   1.292       .  A
C87         C994   1.465       .  S
O89         C104   1.266       .  A
O89         Al97   1.920       .  S
C90         O100   1.260       .  A
C90          O91   1.282       .  A
C90         C974   1.448       .  S
O91         Al93   1.982       .  S
O92          C94   1.266       .  A
O92         Al93   1.906       .  S
Al93        O101   1.956       .  S
Al93        O103   1.928       .  S
Al93        O102   1.767       .  S
C94         O107   1.269       .  A
C94         C321   1.495       .  S
O95         C105   1.261       .  A
O95         Al97   1.964       .  S
O96         C109   1.255       .  A
O96        Al106   1.835       .  S
Al97        O110   1.998       .  S
Al97        O107   1.927       .  S
Al97        O102   1.763       .  S
O98         C105   1.242       .  A
O98        Al106   1.868       .  S
O99         C108   1.244       .  A
O99        Al106   1.875       .  S
O100       Al106   1.846       .  S
O101        C108   1.266       .  A
O102       Al106   1.768       .  S
O103        C104   1.267       .  A
C104        C328   1.503       .  S
C105        C964   1.468       .  S
C108        C987   1.476       .  S
C109        O110   1.287       .  A
C109        C954   1.460       .  S
O111        C126   1.271       .  A
O111       Al119   1.950       .  S
C112        O122   1.244       .  A
C112        O113   1.262       .  A
C112        C927   1.476       .  S
O113       Al115   1.963       .  S
O114        C116   1.274       .  A
O114       Al115   1.953       .  S
Al115       O123   2.021       .  S
Al115       O125   1.911       .  S
Al115       O124   1.759       .  S
C116        O129   1.264       .  A
C116        C323   1.504       .  S
O117        C127   1.291       .  A
O117       Al119   2.012       .  S
O118        C131   1.244       .  A
O118       Al128   1.884       .  S
Al119       O132   1.959       .  S
Al119       O129   1.901       .  S
Al119       O124   1.765       .  S
O120        C127   1.262       .  A
O120       Al128   1.858       .  S
O121        C130   1.260       .  A
O121       Al128   1.860       .  S
O122       Al128   1.879       .  S
O123        C130   1.292       .  A
O124       Al128   1.772       .  S
O125        C126   1.265       .  A
C126        C314   1.508       .  S
C127        C937   1.474       .  S
C130        C917   1.471       .  S
C131        O132   1.264       .  A
C131        C944   1.479       .  S
O133        C148   1.267       .  A
O133       Al141   1.927       .  S
C134        O144   1.256       .  A
C134        O135   1.284       .  A
C134        C877   1.444       .  S
O135       Al137   1.991       .  S
O136        C138   1.267       .  A
O136       Al137   1.917       .  S
Al137       O145   1.974       .  S
Al137       O147   1.918       .  S
Al137       O146   1.765       .  S
C138        O151   1.273       .  A
C138        C278   1.510       .  S
O139        C149   1.264       .  A
O139       Al141   1.970       .  S
O140        C153   1.254       .  A
O140       Al150   1.818       .  S
Al141       O154   2.001       .  S
Al141       O151   1.951       .  S
Al141       O146   1.761       .  S
O142        C149   1.244       .  A
O142       Al150   1.876       .  S
O143        C152   1.246       .  A
O143       Al150   1.884       .  S
O144       Al150   1.824       .  S
O145        C152   1.264       .  A
O146       Al150   1.765       .  S
O147        C148   1.266       .  A
C148        C310   1.503       .  S
C149        C884   1.473       .  S
C152        C904   1.477       .  S
C153        O154   1.289       .  A
C153        C897   1.473       .  S
O155        C170   1.265       .  A
O155       Al163   1.900       .  S
C156        O166   1.258       .  A
C156        O157   1.296       .  A
C156        C867   1.455       .  S
O157       Al159   2.019       .  S
O158        C160   1.264       .  A
O158       Al159   1.918       .  S
Al159       O167   1.980       .  S
Al159       O169   1.952       .  S
Al159       O168   1.756       .  S
C160        O173   1.267       .  A
C160        C267   1.500       .  S
O161        C171   1.267       .  A
O161       Al163   1.993       .  S
O162        C175   1.262       .  A
O162       Al172   1.835       .  S
Al163       O176   1.992       .  S
Al163       O173   1.918       .  S
Al163       O168   1.755       .  S
O164        C171   1.244       .  A
O164       Al172   1.895       .  S
O165        C174   1.237       .  A
O165       Al172   1.872       .  S
O166       Al172   1.811       .  S
O167        C174   1.262       .  A
O168       Al172   1.763       .  S
O169        C170   1.275       .  A
C170        C305   1.505       .  S
C171        C837   1.497       .  S
C174        C854   1.480       .  S
C175        O176   1.291       .  A
C175        C847   1.444       .  S
O177        C192   1.265       .  A
O177       Al185   1.910       .  S
C178        O188   1.261       .  A
C178        O179   1.293       .  A
C178        C814   1.448       .  S
O179       Al181   2.007       .  S
O180        C182   1.265       .  A
O180       Al181   1.909       .  S
Al181       O189   1.990       .  S
Al181       O191   1.932       .  S
Al181       O190   1.757       .  S
C182        O195   1.271       .  A
C182        C301   1.500       .  S
O183        C193   1.265       .  A
O183       Al185   1.991       .  S
O184        C197   1.261       .  A
O184       Al194   1.828       .  S
Al185       O198   2.009       .  S
Al185       O195   1.934       .  S
Al185       O190   1.757       .  S
O186        C193   1.239       .  A
O186       Al194   1.874       .  S
O187        C196   1.241       .  A
O187       Al194   1.881       .  S
O188       Al194   1.835       .  S
O189        C196   1.266       .  A
O190       Al194   1.762       .  S
O191        C192   1.270       .  A
C192        C296   1.501       .  S
C193        C824   1.486       .  S
C196        C797   1.490       .  S
C197        O198   1.293       .  A
C197        C804   1.447       .  S
O199        C214   1.268       .  A
O199       Al207   1.923       .  S
C200        O210   1.256       .  A
C200        O201   1.285       .  A
C200        C754   1.444       .  S
O201       Al203   1.984       .  S
O202        C204   1.265       .  A
O202       Al203   1.904       .  S
Al203       O211   1.979       .  S
Al203       O213   1.902       .  S
Al203       O212   1.769       .  S
C204        O217   1.269       .  A
C204        C292   1.500       .  S
O205        C215   1.267       .  A
O205       Al207   1.981       .  S
O206        C219   1.268       .  A
O206       Al216   1.863       .  S
Al207       O220   1.971       .  S
Al207       O217   1.934       .  S
Al207       O212   1.756       .  S
O208        C215   1.239       .  A
O208       Al216   1.869       .  S
O209        C218   1.237       .  A
O209       Al216   1.876       .  S
O210       Al216   1.827       .  S
O211        C218   1.264       .  A
O212       Al216   1.765       .  S
O213        C214   1.263       .  A
C214        C285   1.495       .  S
C215        C764   1.478       .  S
C218        C784   1.489       .  S
C219        O220   1.288       .  A
C219        C774   1.458       .  S
O221        C236   1.270       .  A
O221       Al229   1.930       .  S
C222        O232   1.254       .  A
C222        O223   1.285       .  A
C222        C714   1.447       .  S
O223       Al225   1.992       .  S
O224        C226   1.269       .  A
O224       Al225   1.924       .  S
Al225       O233   1.993       .  S
Al225       O235   1.920       .  S
Al225       O234   1.766       .  S
C226        O239   1.269       .  A
C226        C265   1.510       .  S
O227        C237   1.266       .  A
O227       Al229   1.974       .  S
O228        C241   1.265       .  A
O228       Al238   1.856       .  S
Al229       O242   1.987       .  S
Al229       O239   1.939       .  S
Al229       O234   1.761       .  S
O230        C237   1.242       .  A
O230       Al238   1.876       .  S
O231        C240   1.240       .  A
O231       Al238   1.873       .  S
O232       Al238   1.823       .  S
O233        C240   1.267       .  A
O234       Al238   1.764       .  S
O235        C236   1.266       .  A
C236        C287   1.504       .  S
C237        C744   1.481       .  S
C240        C734   1.484       .  S
C241        O242   1.288       .  A
C241        C724   1.457       .  S
O243        C258   1.269       .  A
O243       Al251   1.913       .  S
C244        O254   1.264       .  A
C244        O245   1.287       .  A
C244        C694   1.444       .  S
O245       Al247   1.977       .  S
O246        C248   1.269       .  A
O246       Al247   1.934       .  S
Al247       O255   1.987       .  S
Al247       O257   1.927       .  S
Al247       O256   1.758       .  S
C248        O261   1.260       .  A
C248        C269   1.497       .  S
O249        C259   1.267       .  A
O249       Al251   2.001       .  S
O250        C263   1.257       .  A
O250       Al260   1.839       .  S
Al251       O264   1.985       .  S
Al251       O261   1.894       .  S
Al251       O256   1.767       .  S
O252        C259   1.238       .  A
O252       Al260   1.879       .  S
O253        C262   1.236       .  A
O253       Al260   1.861       .  S
O254       Al260   1.850       .  S
O255        C262   1.266       .  A
O256       Al260   1.765       .  S
O257        C258   1.268       .  A
C258        C274   1.499       .  S
C259        C707   1.497       .  S
C262        C684   1.480       .  S
C263        O264   1.285       .  A
C263        C674   1.446       .  S
C265        C266   1.417       .  A
C265        C270   1.413       .  A
C266        C267   1.419       .  A
C266        H271   1.084       .  S
C267        C268   1.410       .  A
C268        C269   1.405       .  A
C268        H272   1.082       .  S
C269        C270   1.414       .  A
C270        H273   1.083       .  S
C274        C275   1.408       .  A
C274        C279   1.415       .  A
C275        C276   1.405       .  A
C275        H280   1.084       .  S
C276        C277   1.418       .  A
C277        C278   1.416       .  A
C277        H281   1.080       .  S
C278        C279   1.418       .  A
C279        H282   1.085       .  S
C283        C284   1.409       .  A
C283        C288   1.415       .  A
C284        C285   1.407       .  A
C284        H289   1.084       .  S
C285        C286   1.413       .  A
C286        C287   1.411       .  A
C286        H290   1.083       .  S
C287        C288   1.416       .  A
C288        H291   1.083       .  S
C292        C293   1.415       .  A
C292        C297   1.413       .  A
C293        C294   1.416       .  A
C293        H298   1.084       .  S
C294        C295   1.414       .  A
C295        C296   1.413       .  A
C295        H299   1.084       .  S
C296        C297   1.407       .  A
C297        H300   1.082       .  S
C301        C302   1.412       .  A
C301        C306   1.417       .  A
C302        C303   1.411       .  A
C302        H307   1.083       .  S
C303        C304   1.411       .  A
C304        C305   1.416       .  A
C304        H308   1.082       .  S
C305        C306   1.411       .  A
C306        H309   1.084       .  S
C310        C311   1.410       .  A
C310        C315   1.412       .  A
C311        C312   1.410       .  A
C311        H316   1.083       .  S
C312        C313   1.418       .  A
C313        C314   1.418       .  A
C313        H317   1.084       .  S
C314        C315   1.418       .  A
C315        H318   1.082       .  S
C319        C320   1.409       .  A
C319        C324   1.416       .  A
C320        C321   1.414       .  A
C320        H325   1.084       .  S
C321        C322   1.414       .  A
C322        C323   1.409       .  A
C322        H326   1.083       .  S
C323        C324   1.416       .  A
C324        H327   1.082       .  S
C328        C329   1.413       .  A
C328        C333   1.413       .  A
C329        C330   1.414       .  A
C329        H334   1.083       .  S
C330        C331   1.414       .  A
C331        C332   1.417       .  A
C331        H335   1.082       .  S
C332        C333   1.413       .  A
C333        H336   1.083       .  S
O337        C352   1.269       .  A
O337       Al345   1.938       .  S
C338        O348   1.263       .  A
C338        O339   1.290       .  A
C338        C807   1.446       .  S
O339       Al341   1.987   1_565  S
O340        C342   1.266       .  A
O340       Al341   1.912   1_565  S
Al341       O349   1.991       .  S
Al341       O351   1.918       .  S
Al341       O350   1.759       .  S
C342        O355   1.272       .  A
C342        C666   1.507       .  S
O343        C353   1.267       .  A
O343       Al345   1.997   1_565  S
O344        C357   1.262       .  A
O344       Al354   1.830       .  S
Al345       O358   1.993       .  S
Al345       O355   1.944   1_545  S
Al345       O350   1.753       .  S
O346        C353   1.238       .  A
O346       Al354   1.865   1_565  S
O347        C356   1.243       .  A
O347       Al354   1.888       .  S
O348       Al354   1.840   1_565  S
O349        C356   1.265       .  A
O350       Al354   1.766       .  S
O351        C352   1.266       .  A
C352        C359   1.508       .  S
C353       C1047   1.485       .  S
C356        C737   1.489       .  S
C357        O358   1.293       .  A
C357       C1084   1.468       .  S
C359        C360   1.416       .  A
C359        C364   1.415       .  A
C360        C361   1.419       .  A
C360        H365   1.082       .  S
C361        C373   1.509       .  S
C361        C362   1.412       .  A
C362        C363   1.416       .  A
C362        H366   1.083       .  S
C363        C616   1.504       .  S
C363        C364   1.412       .  A
C364        H367   1.084       .  S
O368        C383   1.272       .  A
O368       Al376   1.934   1_455  S
C369        O379   1.262       .  A
C369        O370   1.286       .  A
C369        C777   1.450       .  S
O370       Al372   1.979       .  S
O371        C373   1.269       .  A
O371       Al372   1.942       .  S
Al372       O380   1.986   1_655  S
Al372       O382   1.925   1_655  S
Al372       O381   1.760       .  S
C373        O386   1.262       .  A
O374        C384   1.270       .  A
O374       Al376   2.004       .  S
O375        C388   1.264       .  A
O375       Al385   1.856   1_455  S
Al376       O389   1.975   1_655  S
Al376       O386   1.912       .  S
Al376       O381   1.767       .  S
O377        C384   1.243       .  A
O377       Al385   1.879       .  S
O378        C387   1.238       .  A
O378       Al385   1.862   1_455  S
O379       Al385   1.836       .  S
O380        C387   1.264       .  A
O381       Al385   1.774       .  S
O382        C383   1.269       .  A
C383        C414   1.507       .  S
C384       C1097   1.500       .  S
C387        C834   1.479       .  S
C388        O389   1.283       .  A
C388        C697   1.446       .  S
O390        C405   1.266       .  A
O390       Al398   1.920   1_565  S
C391        O401   1.253       .  A
C391        O392   1.282       .  A
C391        C717   1.447       .  S
O392       Al394   1.993       .  S
O393        C395   1.266       .  A
O393       Al394   1.907       .  S
Al394       O402   1.957   1_545  S
Al394       O404   1.921   1_545  S
Al394       O403   1.767       .  S
C395        O408   1.269       .  A
C395        C416   1.493       .  S
O396        C406   1.263       .  A
O396       Al398   1.965       .  S
O397        C410   1.255       .  A
O397       Al407   1.816   1_565  S
Al398       O411   1.985   1_545  S
Al398       O408   1.925       .  S
Al398       O403   1.763       .  S
O399        C406   1.244       .  A
O399       Al407   1.872       .  S
O400        C409   1.248       .  A
O400       Al407   1.881   1_565  S
O401       Al407   1.827       .  S
O402        C409   1.263       .  A
O403       Al407   1.766       .  S
O404        C405   1.266       .  A
C405        C445   1.499       .  S
C406        C704   1.470       .  S
C409        C827   1.468       .  S
C410        O411   1.283       .  A
C410       C1127   1.448       .  S
C412        C551   1.504       .  S
C412        C413   1.419       .  A
C412        C417   1.408       .  A
C413        C414   1.416       .  A
C413        H418   1.083       .  S
C414        C415   1.409       .  A
C415        C416   1.412       .  A
C415        H419   1.083       .  S
C416        C417   1.412       .  A
C417        H420   1.084       .  S
O421        C436   1.267       .  A
O421       Al429   1.914   1_455  S
C422        O432   1.263       .  A
C422        O423   1.290       .  A
C422       C1037   1.466       .  S
O423       Al425   1.981       .  S
O424        C426   1.265       .  A
O424       Al425   1.914       .  S
Al425       O433   1.984   1_655  S
Al425       O435   1.911   1_655  S
Al425       O434   1.756       .  S
C426        O439   1.270       .  A
C426        C668   1.504       .  S
O427        C437   1.267       .  A
O427       Al429   1.977       .  S
O428        C441   1.262       .  A
O428       Al438   1.834   1_455  S
Al429       O442   1.992   1_655  S
Al429       O439   1.935       .  S
Al429       O434   1.763       .  S
O430        C437   1.236       .  A
O430       Al438   1.869       .  S
O431        C440   1.239       .  A
O431       Al438   1.875   1_455  S
O432       Al438   1.837       .  S
O433        C440   1.262       .  A
O434       Al438   1.770       .  S
O435        C436   1.265       .  A
C436        C443   1.493       .  S
C437        C767   1.482       .  S
C440       C1134   1.477       .  S
C441        O442   1.288       .  A
C441        C844   1.445       .  S
C443        C444   1.414       .  A
C443        C448   1.411       .  A
C444        C445   1.410       .  A
C444        H449   1.085       .  S
C445        C446   1.410       .  A
C446        C447   1.412       .  A
C446        H450   1.084       .  S
C447        C467   1.495       .  S
C447        C448   1.407       .  A
C448        H451   1.081       .  S
O452        C467   1.264       .  A
O452       Al460   1.891   1_556  S
C453        O463   1.254       .  A
C453        O454   1.288       .  A
C453        C894   1.468       .  S
O454       Al456   1.992       .  S
O455        C457   1.265       .  A
O455       Al456   1.922       .  S
Al456       O464   1.958   1_554  S
Al456       O466   1.943   1_554  S
Al456       O465   1.758   1_554  S
C457        O470   1.265       .  A
C457        C496   1.501       .  S
O458        C468   1.261       .  A
O458       Al460   1.951       .  S
O459        C472   1.254       .  A
O459       Al469   1.826       .  S
Al460       O473   1.996   1_554  S
Al460       O470   1.919       .  S
Al460       O465   1.768   1_554  S
O461        C468   1.249       .  A
O461       Al469   1.892   1_554  S
O462        C471   1.244       .  A
O462       Al469   1.873       .  S
O463       Al469   1.820   1_554  S
O464        C471   1.262       .  A
O465       Al469   1.767       .  S
O466        C467   1.273       .  A
C468        C914   1.472       .  S
C471        C857   1.466       .  S
C472        O473   1.284       .  A
C472        C817   1.446       .  S
O474        C489   1.266       .  A
O474       Al482   1.926   1_455  S
C475        O485   1.263       .  A
C475        O476   1.288       .  A
C475        C977   1.448       .  S
O476       Al478   1.994       .  S
O477        C479   1.268       .  A
O477       Al478   1.920       .  S
Al478       O486   1.996   1_655  S
Al478       O488   1.929   1_655  S
Al478       O487   1.762       .  S
C479        O492   1.272       .  A
C479        C527   1.507       .  S
O480        C490   1.262       .  A
O480       Al482   1.974       .  S
O481        C494   1.260       .  A
O481       Al491   1.829   1_455  S
Al482       O495   2.003   1_655  S
Al482       O492   1.940       .  S
Al482       O487   1.758       .  S
O483        C490   1.239       .  A
O483       Al491   1.874       .  S
O484        C493   1.243   1_655  A
O484       Al491   1.881       .  S
O485       Al491   1.845       .  S
O486        C493   1.268       .  A
O487       Al491   1.769       .  S
O488        C489   1.267       .  A
C489        C498   1.508       .  S
C490       C1067   1.473       .  S
C493        C907   1.494       .  S
C494        O495   1.291       .  A
C494       C1117   1.450       .  S
C496        C497   1.412       .  A
C496        C501   1.411       .  A
C497        C498   1.415       .  A
C497        H502   1.083       .  S
C498        C499   1.419       .  A
C499        C500   1.418       .  A
C499        H503   1.082       .  S
C500        C563   1.507       .  S
C500        C501   1.411       .  A
C501        H504   1.084       .  S
O505        C520   1.265       .  A
O505       Al513   1.912       .  S
C506        O516   1.260       .  A
C506        O507   1.289       .  A
C506        C757   1.449       .  S
O507       Al509   2.001   1_556  S
O508        C510   1.268       .  A
O508       Al509   1.922   1_556  S
Al509       O517   1.995       .  S
Al509       O519   1.936       .  S
Al509       O518   1.765       .  S
C510        O523   1.271       .  A
C510        C664   1.506       .  S
O511        C521   1.261       .  A
O511       Al513   1.969   1_556  S
O512        C525   1.259       .  A
O512       Al522   1.845   1_554  S
Al513       O526   2.004       .  S
Al513       O523   1.935   1_554  S
Al513       O518   1.755       .  S
O514        C521   1.243       .  A
O514       Al522   1.881       .  S
O515        C524   1.240       .  A
O515       Al522   1.876   1_554  S
O516       Al522   1.840       .  S
O517        C524   1.268       .  A
O518       Al522   1.767   1_554  S
O519        C520   1.268       .  A
C520        C529   1.504       .  S
C521        C794   1.473       .  S
C524        C967   1.492       .  S
C525        O526   1.291       .  A
C525        C924   1.458       .  S
C527        C528   1.417       .  A
C527        C532   1.415       .  A
C528        C529   1.414       .  A
C528        H533   1.083       .  S
C529        C530   1.412       .  A
C530        C531   1.410       .  A
C530        H534   1.083       .  S
C531        C648   1.503       .  S
C531        C532   1.415       .  A
C532        H535   1.082       .  S
O536        C551   1.263       .  A
O536       Al544   1.901   1_556  S
C537        O547   1.260       .  A
C537        O538   1.295       .  A
C537        C997   1.463       .  S
O538       Al540   1.994       .  S
O539        C541   1.264       .  A
O539       Al540   1.913       .  S
Al540       O548   1.976   1_554  S
Al540       O550   1.948   1_554  S
Al540       O549   1.751       .  S
C541        O554   1.269       .  A
C541        C604   1.501       .  S
O542        C552   1.263       .  A
O542       Al544   1.988       .  S
O543        C556   1.261       .  A
O543       Al553   1.820   1_556  S
Al544       O557   1.997   1_554  S
Al544       O554   1.928       .  S
Al544       O549   1.755       .  S
O545        C552   1.240       .  A
O545       Al553   1.887       .  S
O546        C555   1.238       .  A
O546       Al553   1.878   1_556  S
O547       Al553   1.824       .  S
O548        C555   1.265       .  A
O549       Al553   1.771       .  S
O550        C551   1.274       .  A
C552        C887   1.494       .  S
C555        C747   1.484       .  S
C556        O557   1.295       .  A
C556        C864   1.456       .  S
O558        C573   1.267       .  A
O558       Al566   1.925       .  S
C559        O569   1.259       .  A
C559        O560   1.290       .  A
C559        C947   1.463       .  S
O560       Al562   2.006   1_565  S
O561        C563   1.271       .  A
O561       Al562   1.927   1_565  S
Al562       O570   2.007       .  S
Al562       O572   1.925       .  S
Al562       O571   1.759       .  S
C563        O576   1.270       .  A
O564        C574   1.264       .  A
O564       Al566   1.975   1_565  S
O565        C578   1.261       .  A
O565       Al575   1.835       .  S
Al566       O579   1.990       .  S
Al566       O576   1.933   1_545  S
Al566       O571   1.761       .  S
O567        C574   1.236       .  A
O567       Al575   1.862   1_565  S
O568        C577   1.241       .  A
O568       Al575   1.878       .  S
O569       Al575   1.850   1_565  S
O570        C577   1.270       .  A
O571       Al575   1.765       .  S
O572        C573   1.267       .  A
C573        C602   1.505       .  S
C574       C1147   1.476       .  S
C577       C1004   1.494       .  S
C578        O579   1.289       .  A
C578        C677   1.445       .  S
O580        C595   1.266       .  A
O580       Al588   1.910   1_455  S
C581        O591   1.254       .  A
C581        O582   1.287       .  A
C581       C1107   1.451       .  S
O582       Al584   2.004       .  S
O583        C585   1.267       .  A
O583       Al584   1.907       .  S
Al584       O592   1.973   1_655  S
Al584       O594   1.926   1_655  S
Al584       O593   1.767       .  S
C585        O598   1.268       .  A
C585        C657   1.493       .  S
O586        C596   1.265       .  A
O586       Al588   1.982       .  S
O587        C600   1.258       .  A
O587       Al597   1.831   1_455  S
Al588       O601   1.984   1_655  S
Al588       O598   1.919       .  S
Al588       O593   1.759       .  S
O589        C596   1.237       .  A
O589       Al597   1.867       .  S
O590        C599   1.240   1_655  A
O590       Al597   1.877       .  S
O591       Al597   1.834       .  S
O592        C599   1.266       .  A
O593       Al597   1.756       .  S
O594        C595   1.268       .  A
C595        C606   1.498       .  S
C596        C984   1.479       .  S
C599        C687   1.484       .  S
C600        O601   1.287       .  A
C600        C874   1.446       .  S
C602        C603   1.415       .  A
C602        C607   1.414       .  A
C603        C604   1.415       .  A
C603        H608   1.082       .  S
C604        C605   1.408       .  A
C605        C606   1.411       .  A
C605        H609   1.084       .  S
C606        C607   1.414       .  A
C607        H610   1.084       .  S
O611        C626   1.273       .  A
O611       Al619   1.960       .  S
C612        O622   1.243       .  A
C612        O613   1.259       .  A
C612        C727   1.467       .  S
O613       Al615   1.938   1_556  S
O614        C616   1.272       .  A
O614       Al615   1.946   1_556  S
Al615       O623   2.007       .  S
Al615       O625   1.886       .  S
Al615       O624   1.762       .  S
C616        O629   1.264       .  A
O617        C627   1.292       .  A
O617       Al619   2.010   1_556  S
O618        C631   1.244       .  A
O618       Al628   1.881       .  S
Al619       O632   1.957       .  S
Al619       O629   1.904   1_554  S
Al619       O624   1.762       .  S
O620        C627   1.264       .  A
O620       Al628   1.861   1_556  S
O621        C630   1.263       .  A
O621       Al628   1.852       .  S
O622       Al628   1.883   1_556  S
O623        C630   1.292       .  A
O624       Al628   1.772       .  S
O625        C626   1.260       .  A
C626        C655   1.504       .  S
C627        C787   1.474       .  S
C630       C1027   1.474       .  S
C631        O632   1.264       .  A
C631        C957   1.476       .  S
O633        C648   1.265       .  A
O633       Al641   1.916   1_565  S
C634        O644   1.255       .  A
C634        O635   1.290       .  A
C634       C1017   1.452       .  S
O635       Al637   2.006       .  S
O636        C638   1.264       .  A
O636       Al637   1.900       .  S
Al637       O645   1.972   1_545  S
Al637       O647   1.932   1_545  S
Al637       O646   1.763       .  S
C638        O651   1.273       .  A
C638        C659   1.502       .  S
O639        C649   1.264       .  A
O639       Al641   1.971       .  S
O640        C653   1.259       .  A
O640       Al650   1.833   1_565  S
Al641       O654   2.003   1_545  S
Al641       O651   1.944       .  S
Al641       O646   1.759       .  S
O642        C649   1.240       .  A
O642       Al650   1.873       .  S
O643        C652   1.242   1_545  A
O643       Al650   1.886       .  S
O644       Al650   1.826       .  S
O645        C652   1.264       .  A
O646       Al650   1.768       .  S
O647        C648   1.270       .  A
C649       C1074   1.479       .  S
C652        C934   1.490       .  S
C653        O654   1.291       .  A
C653       C1057   1.449       .  S
C655        C656   1.409       .  A
C655        C660   1.416       .  A
C656        C657   1.416       .  A
C656        H661   1.085       .  S
C657        C658   1.413       .  A
C658        C659   1.405       .  A
C658        H662   1.083       .  S
C659        C660   1.413       .  A
C660        H663   1.081       .  S
C664        C665   1.414       .  A
C664        C669   1.414       .  A
C665        C666   1.416       .  A
C665        H670   1.082       .  S
C666        C667   1.413       .  A
C667        C668   1.417       .  A
C667        H671   1.082       .  S
C668        C669   1.414       .  A
C669        H672   1.084       .  S
C673        C674   1.409       .  A
C673        C678   1.397       .  A
C673        F680   1.358       .  S
C674        C675   1.398       .  A
C675        C676   1.388       .  A
C675        F682   1.359       .  S
C676        C677   1.404       .  A
C676        F681   1.358       .  S
C677        C678   1.399       .  A
C678        F679   1.358       .  S
C683        C684   1.422       .  A
C683        C688   1.393       .  A
C683        F690   1.351       .  S
C684        C685   1.393       .  A
C685        C686   1.399       .  A
C685        F692   1.358       .  S
C686        C687   1.425       .  A
C686        F691   1.356       .  S
C687        C688   1.390       .  A
C688        F689   1.358       .  S
C693        C694   1.402       .  A
C693        C698   1.396       .  A
C693        F700   1.358       .  S
C694        C695   1.399       .  A
C695        C696   1.387       .  A
C695        F702   1.359       .  S
C696        C697   1.401       .  A
C696        F701   1.357       .  S
C697        C698   1.403       .  A
C698        F699   1.357       .  S
C703        C704   1.394       .  A
C703        C708   1.393       .  A
C703        F710   1.359       .  S
C704        C705   1.411       .  A
C705        C706   1.410       .  A
C705        F712   1.354       .  S
C706        C707   1.407       .  A
C706        F711   1.357       .  S
C707        C708   1.421       .  A
C708        F709   1.359       .  S
C713        C714   1.398       .  A
C713        C718   1.391       .  A
C713        F720   1.357       .  S
C714        C715   1.408       .  A
C715        C716   1.397       .  A
C715        F722   1.358       .  S
C716        C717   1.400       .  A
C716        F721   1.358       .  S
C717        C718   1.406       .  A
C718        F719   1.357       .  S
C723        C724   1.403       .  A
C723        C728   1.397       .  A
C723        F730   1.353       .  S
C724        C725   1.400       .  A
C725        C726   1.392       .  A
C725        F732   1.359       .  S
C726        C727   1.410       .  A
C726        F731   1.359       .  S
C727        C728   1.403       .  A
C728        F729   1.358       .  S
C733        C734   1.406       .  A
C733        C738   1.393       .  A
C733        F740   1.358       .  S
C734        C735   1.407       .  A
C735        C736   1.416       .  A
C735        F742   1.355       .  S
C736        C737   1.413       .  A
C736        F741   1.357       .  S
C737        C738   1.407       .  A
C738        F739   1.359       .  S
C743        C744   1.421       .  A
C743        C748   1.397       .  A
C743        F750   1.353       .  S
C744        C745   1.394       .  A
C745        C746   1.399       .  A
C745        F752   1.358       .  S
C746        C747   1.423       .  A
C746        F751   1.357       .  S
C747        C748   1.394       .  A
C748        F749   1.358       .  S
C753        C754   1.410       .  A
C753        C758   1.399       .  A
C753        F760   1.358       .  S
C754        C755   1.395       .  A
C755        C756   1.386       .  A
C755        F762   1.359       .  S
C756        C757   1.403       .  A
C756        F761   1.352       .  S
C757        C758   1.401       .  A
C758        F759   1.358       .  S
C763        C764   1.421       .  A
C763        C768   1.394       .  A
C763        F770   1.350       .  S
C764        C765   1.393       .  A
C765        C766   1.398       .  A
C765        F772   1.358       .  S
C766        C767   1.425       .  A
C766        F771   1.357       .  S
C767        C768   1.392       .  A
C768        F769   1.358       .  S
C773        C774   1.400       .  A
C773        C778   1.387       .  A
C773        F780   1.359       .  S
C774        C775   1.409       .  A
C775        C776   1.396       .  A
C775        F782   1.354       .  S
C776        C777   1.397       .  A
C776        F781   1.358       .  S
C777        C778   1.405       .  A
C778        F779   1.359       .  S
C783        C784   1.421       .  A
C783        C788   1.396       .  A
C783        F790   1.359       .  S
C784        C785   1.403       .  A
C785        C786   1.402       .  A
C785        F792   1.358       .  S
C786        C787   1.410       .  A
C786        F791   1.352       .  S
C787        C788   1.397       .  A
C788        F789   1.358       .  S
C793        C794   1.411       .  A
C793        C798   1.411       .  A
C793        F800   1.356       .  S
C794        C795   1.397       .  A
C795        C796   1.392       .  A
C795        F802   1.357       .  S
C796        C797   1.414       .  A
C796        F801   1.358       .  S
C797        C798   1.408       .  A
C798        F799   1.357       .  S
C803        C804   1.399       .  A
C803        C808   1.398       .  A
C803        F810   1.358       .  S
C804        C805   1.407       .  A
C805        C806   1.384       .  A
C805        F812   1.355       .  S
C806        C807   1.394       .  A
C806        F811   1.359       .  S
C807        C808   1.409       .  A
C808        F809   1.355       .  S
C813        C814   1.400       .  A
C813        C818   1.391       .  A
C813        F820   1.357       .  S
C814        C815   1.406       .  A
C815        C816   1.398       .  A
C815        F822   1.357       .  S
C816        C817   1.403       .  A
C816        F821   1.358       .  S
C817        C818   1.404       .  A
C818        F819   1.358       .  S
C823        C824   1.412       .  A
C823        C828   1.388       .  A
C823        F830   1.356       .  S
C824        C825   1.408       .  A
C825        C826   1.412       .  A
C825        F832   1.357       .  S
C826        C827   1.412       .  A
C826        F831   1.357       .  S
C827        C828   1.396       .  A
C828        F829   1.359       .  S
C833        C834   1.410       .  A
C833        C838   1.412       .  A
C833        F840   1.355       .  S
C834        C835   1.403       .  A
C835        C836   1.398       .  A
C835        F842   1.359       .  S
C836        C837   1.414       .  A
C836        F841   1.359       .  S
C837        C838   1.410       .  A
C838        F839   1.357       .  S
C843        C844   1.399       .  A
C843        C848   1.397       .  A
C843        F850   1.358       .  S
C844        C845   1.406       .  A
C845        C846   1.385       .  A
C845        F852   1.357       .  S
C846        C847   1.396       .  A
C846        F851   1.359       .  S
C847        C848   1.409       .  A
C848        F849   1.357       .  S
C853        C854   1.405       .  A
C853        C858   1.407       .  A
C853        F860   1.357       .  S
C854        C855   1.412       .  A
C855        C856   1.393       .  A
C855        F862   1.359       .  S
C856        C857   1.399       .  A
C856        F861   1.359       .  S
C857        C858   1.409       .  A
C858        F859   1.356       .  S
C863        C864   1.391       .  A
C863        C868   1.383       .  A
C863        F870   1.358       .  S
C864        C865   1.419       .  A
C865        C866   1.396       .  A
C865        F872   1.358       .  S
C866        C867   1.393       .  A
C866        F871   1.358       .  S
C867        C868   1.416       .  A
C868        F869   1.359       .  S
C873        C874   1.410       .  A
C873        C878   1.395       .  A
C873        F880   1.358       .  S
C874        C875   1.395       .  A
C875        C876   1.387       .  A
C875        F882   1.359       .  S
C876        C877   1.408       .  A
C876        F881   1.358       .  S
C877        C878   1.397       .  A
C878        F879   1.358       .  S
C883        C884   1.399       .  A
C883        C888   1.396       .  A
C883        F890   1.359       .  S
C884        C885   1.411       .  A
C885        C886   1.410       .  A
C885        F892   1.357       .  S
C886        C887   1.409       .  A
C886        F891   1.357       .  S
C887        C888   1.415       .  A
C888        F889   1.359       .  S
C893        C894   1.421       .  A
C893        C898   1.391       .  A
C893        F900   1.359       .  S
C894        C895   1.392       .  A
C895        C896   1.387       .  A
C895        F902   1.358       .  S
C896        C897   1.424       .  A
C896        F901   1.358       .  S
C897        C898   1.395       .  A
C898        F899   1.358       .  S
C903        C904   1.399       .  A
C903        C908   1.392       .  A
C903        F910   1.359       .  S
C904        C905   1.412       .  A
C905        C906   1.415       .  A
C905        F912   1.357       .  S
C906        C907   1.410       .  A
C906        F911   1.357       .  S
C907        C908   1.414       .  A
C908        F909   1.357       .  S
C913        C914   1.411       .  A
C913        C918   1.410       .  A
C913        F920   1.357       .  S
C914        C915   1.397       .  A
C915        C916   1.388       .  A
C915        F922   1.359       .  S
C916        C917   1.403       .  A
C916        F921   1.347       .  S
C917        C918   1.407       .  A
C918        F919   1.357       .  S
C923        C924   1.395       .  A
C923        C928   1.387       .  A
C923        F930   1.357       .  S
C924        C925   1.410       .  A
C925        C926   1.406       .  A
C925        F932   1.356       .  S
C926        C927   1.404       .  A
C926        F931   1.358       .  S
C927        C928   1.408       .  A
C928        F929   1.351       .  S
C933        C934   1.404       .  A
C933        C938   1.401       .  A
C933        F940   1.358       .  S
C934        C935   1.420       .  A
C935        C936   1.397       .  A
C935        F942   1.358       .  S
C936        C937   1.398       .  A
C936        F941   1.358       .  S
C937        C938   1.411       .  A
C938        F939   1.354       .  S
C943        C944   1.404       .  A
C943        C948   1.400       .  A
C943        F950   1.358       .  S
C944        C945   1.414       .  A
C945        C946   1.393       .  A
C945        F952   1.359       .  S
C946        C947   1.398       .  A
C946        F951   1.358       .  S
C947        C948   1.411       .  A
C948        F949   1.358       .  S
C953        C954   1.411       .  A
C953        C958   1.400       .  A
C953        F960   1.358       .  S
C954        C955   1.397       .  A
C955        C956   1.393       .  A
C955        F962   1.358       .  S
C956        C957   1.414       .  A
C956        F961   1.359       .  S
C957        C958   1.403       .  A
C958        F959   1.358       .  S
C963        C964   1.394       .  A
C963        C968   1.390       .  A
C963        F970   1.359       .  S
C964        C965   1.409       .  A
C965        C966   1.410       .  A
C965        F972   1.352       .  S
C966        C967   1.406       .  A
C966        F971   1.357       .  S
C967        C968   1.418       .  A
C968        F969   1.354       .  S
C973        C974   1.402       .  A
C973        C978   1.397       .  A
C973        F980   1.357       .  S
C974        C975   1.402       .  A
C975        C976   1.390       .  A
C975        F982   1.358       .  S
C976        C977   1.401       .  A
C976        F981   1.357       .  S
C977        C978   1.403       .  A
C978        F979   1.357       .  S
C983        C984   1.393       .  A
C983        C988   1.398       .  A
C983        F990   1.358       .  S
C984        C985   1.423       .  A
C985        C986   1.390       .  A
C985        F992   1.351       .  S
C986        C987   1.389       .  A
C986        F991   1.359       .  S
C987        C988   1.422       .  A
C988        F989   1.356       .  S
C993        C994   1.392       .  A
C993        C998   1.388       .  A
C993       F1000   1.358       .  S
C994        C995   1.423       .  A
C995        C996   1.382       .  A
C995       F1002   1.358       .  S
C996        C997   1.391       .  A
C996       F1001   1.359       .  S
C997        C998   1.422       .  A
C998        F999   1.357       .  S
C1003      C1004   1.412       .  A
C1003      C1008   1.393       .  A
C1003      F1010   1.359       .  S
C1004      C1005   1.411       .  A
C1005      C1006   1.417       .  A
C1005      F1012   1.357       .  S
C1006      C1007   1.413       .  A
C1006      F1011   1.357       .  S
C1007      C1008   1.402       .  A
C1008      F1009   1.359       .  S
C1013      C1014   1.399       .  A
C1013      C1018   1.399       .  A
C1013      F1020   1.358       .  S
C1014      C1015   1.410       .  A
C1015      C1016   1.390       .  A
C1015      F1022   1.358       .  S
C1016      C1017   1.397       .  A
C1016      F1021   1.359       .  S
C1017      C1018   1.413       .  A
C1018      F1019   1.358       .  S
C1023      C1024   1.420       .  A
C1023      C1028   1.396       .  A
C1023      F1030   1.358       .  S
C1024      C1025   1.403       .  A
C1025      C1026   1.399       .  A
C1025      F1032   1.358       .  S
C1026      C1027   1.412       .  A
C1026      F1031   1.355       .  S
C1027      C1028   1.397       .  A
C1028      F1029   1.358       .  S
C1033      C1034   1.416       .  A
C1033      C1038   1.385       .  A
C1033      F1040   1.359       .  S
C1034      C1035   1.392       .  A
C1035      C1036   1.393       .  A
C1035      F1042   1.358       .  S
C1036      C1037   1.416       .  A
C1036      F1041   1.354       .  S
C1037      C1038   1.395       .  A
C1038      F1039   1.358       .  S
C1043      C1044   1.413       .  A
C1043      C1048   1.413       .  A
C1043      F1050   1.357       .  S
C1044      C1045   1.402       .  A
C1045      C1046   1.394       .  A
C1045      F1052   1.359       .  S
C1046      C1047   1.411       .  A
C1046      F1051   1.359       .  S
C1047      C1048   1.406       .  A
C1048      F1049   1.356       .  S
C1053      C1054   1.408       .  A
C1053      C1058   1.397       .  A
C1053      F1060   1.355       .  S
C1054      C1055   1.396       .  A
C1055      C1056   1.389       .  A
C1055      F1062   1.359       .  S
C1056      C1057   1.408       .  A
C1056      F1061   1.358       .  S
C1057      C1058   1.398       .  A
C1058      F1059   1.358       .  S
C1063      C1064   1.404       .  A
C1063      C1068   1.409       .  A
C1063      F1070   1.355       .  S
C1064      C1065   1.410       .  A
C1065      C1066   1.395       .  A
C1065      F1072   1.359       .  S
C1066      C1067   1.403       .  A
C1066      F1071   1.359       .  S
C1067      C1068   1.407       .  A
C1068      F1069   1.353       .  S
C1073      C1074   1.422       .  A
C1073      C1078   1.394       .  A
C1073      F1080   1.356       .  S
C1074      C1075   1.394       .  A
C1075      C1076   1.396       .  A
C1075      F1082   1.358       .  S
C1076      C1077   1.419       .  A
C1076      F1081   1.355       .  S
C1077      C1078   1.392       .  A
C1078      F1079   1.358       .  S
C1083      C1084   1.395       .  A
C1083      C1088   1.386       .  A
C1083      F1090   1.358       .  S
C1084      C1085   1.421       .  A
C1085      C1086   1.387       .  A
C1085      F1092   1.356       .  S
C1086      C1087   1.391       .  A
C1086      F1091   1.358       .  S
C1087      C1088   1.419       .  A
C1088      F1089   1.359       .  S
C1093      C1094   1.399       .  A
C1093      C1098   1.393       .  A
C1093      F1100   1.359       .  S
C1094      C1095   1.414       .  A
C1095      C1096   1.416       .  A
C1095      F1102   1.357       .  S
C1096      C1097   1.410       .  A
C1096      F1101   1.357       .  S
C1097      C1098   1.417       .  A
C1098      F1099   1.358       .  S
C1103      C1104   1.405       .  A
C1103      C1108   1.399       .  A
C1103      F1110   1.358       .  S
C1104      C1105   1.405       .  A
C1105      C1106   1.393       .  A
C1105      F1112   1.358       .  S
C1106      C1107   1.402       .  A
C1106      F1111   1.358       .  S
C1107      C1108   1.407       .  A
C1108      F1109   1.358       .  S
C1113      C1114   1.398       .  A
C1113      C1118   1.389       .  A
C1113      F1120   1.359       .  S
C1114      C1115   1.410       .  A
C1115      C1116   1.399       .  A
C1115      F1122   1.358       .  S
C1116      C1117   1.400       .  A
C1116      F1121   1.358       .  S
C1117      C1118   1.407       .  A
C1118      F1119   1.358       .  S
C1123      C1124   1.398       .  A
C1123      C1128   1.388       .  A
C1123      F1130   1.358       .  S
C1124      C1125   1.408       .  A
C1125      C1126   1.393       .  A
C1125      F1132   1.349       .  S
C1126      C1127   1.393       .  A
C1126      F1131   1.358       .  S
C1127      C1128   1.410       .  A
C1128      F1129   1.359       .  S
C1133      C1134   1.412       .  A
C1133      C1138   1.413       .  A
C1133      F1140   1.355       .  S
C1134      C1135   1.398       .  A
C1135      C1136   1.394       .  A
C1135      F1142   1.359       .  S
C1136      C1137   1.417       .  A
C1136      F1141   1.359       .  S
C1137      C1138   1.405       .  A
C1138      F1139   1.358       .  S
C1143      C1144   1.423       .  A
C1143      C1148   1.396       .  A
C1143      F1150   1.355       .  S
C1144      C1145   1.390       .  A
C1145      C1146   1.393       .  A
C1145      F1152   1.358       .  S
C1146      C1147   1.422       .  A
C1146      F1151   1.354       .  S
C1147      C1148   1.392       .  A
C1148      F1149   1.358       .  S
