geometry optimzed in LAMMPS
_audit_creation_date              2020-12-01 
_audit_creation_method            'lammps2cif' 
_symmetry_space_group_name_H-M    'P1' 
_symmetry_Int_Tables_number       1 
_symmetry_cell_setting            triclinic 
loop_ 
_symmetry_equiv_pos_as_xyz 
  x,y,z 
_cell_length_a                    92.52155739 
_cell_length_b                    44.52832909375258 
_cell_length_c                    33.827044787721235 
_cell_angle_alpha                 89.75092616673194 
_cell_angle_beta                  89.8343027011408 
_cell_angle_gamma                 90.13350131135648 
loop_ 
_atom_site_label 
_atom_site_type_symbol 
_atom_site_fract_x 
_atom_site_fract_y 
_atom_site_fract_z 
_atom_site_charge 
N1          N  0.86079196  0.61125625  0.58792340    -0.27300
N2          N  0.84655934  0.60867398  0.58955855    -0.35200
C3          C  0.84172531  0.59894549  0.55439266     0.01000
C4          C  0.85350817  0.59496377  0.52972902     0.07100
C5          C  0.86540520  0.60301736  0.55188361    -0.06000
H6          H  0.83052353  0.59406869  0.54780300     0.07700
H7          H  0.87662762  0.60249848  0.54275519     0.08900
Cu8        Cu  0.83453599  0.61568448  0.64055788     0.44200
Cu9        Cu  0.87347015  0.62466245  0.63485136     0.42000
Cu10       Cu  0.85559112  0.62968115  0.72899496     0.43900
N11         N  0.82564350  0.62001799  0.69662649    -0.34700
N12         N  0.83343900  0.62388023  0.72892234    -0.28900
C13         C  0.82461183  0.62458991  0.76050075    -0.05000
C14         C  0.81058887  0.62123364  0.74742857     0.07200
C15         C  0.81159303  0.61849870  0.70680261     0.01000
H16         H  0.82814900  0.62776147  0.79064806     0.08600
H17         H  0.80280986  0.61516596  0.68623013     0.07700
N18         N  0.87702250  0.64101726  0.72030716    -0.36100
N19         N  0.88353782  0.63940431  0.68563075    -0.28300
C20         C  0.89684017  0.65125470  0.68859589    -0.03600
C21         C  0.89882590  0.66105267  0.72709095     0.05000
C22         C  0.88599264  0.65397712  0.74635015     0.03100
H23         H  0.90415047  0.65388664  0.66385267     0.08200
H24         H  0.88304692  0.65899768  0.77655975     0.07100
N25         N  0.83306300  0.54662562  0.29324924    -0.27300
N26         N  0.82534542  0.55339821  0.32490432    -0.35200
C27         C  0.81141455  0.55650980  0.31435446     0.01000
C28         C  0.81041253  0.55176051  0.27407041     0.07100
C29         C  0.82432131  0.54564487  0.26161208    -0.06000
H30         H  0.80270428  0.56186223  0.33446626     0.07700
H31         H  0.82776729  0.53990023  0.23204650     0.08900
Cu32       Cu  0.83431882  0.55872746  0.38053137     0.44200
Cu33       Cu  0.85484927  0.53645424  0.29495729     0.42000
Cu34       Cu  0.87301197  0.54372815  0.38843324     0.43900
N35         N  0.84650780  0.56725800  0.43058508    -0.34700
N36         N  0.86061123  0.56275048  0.43298602    -0.28900
C37         C  0.86526389  0.57216247  0.46846130    -0.05000
C38         C  0.85351995  0.58285748  0.48941791     0.07200
C39         C  0.84180283  0.57934891  0.46462495     0.01000
H40         H  0.87636693  0.57100889  0.47836410     0.08600
H41         H  0.83070556  0.58552948  0.47059406     0.07700
N42         N  0.88240822  0.52407932  0.33913833    -0.36100
N43         N  0.87575687  0.52197421  0.30476688    -0.28300
C44         C  0.88420765  0.50691673  0.27936252    -0.03600
C45         C  0.89682998  0.49887703  0.29861249     0.05000
C46         C  0.89530016  0.51028659  0.33653999     0.03100
H47         H  0.88104382  0.50117762  0.24956248     0.08200
H48         H  0.90283341  0.50829570  0.36076773     0.07100
N49         N  0.02502699  0.83626539  0.86571308    -0.27300
N50         N  0.03221251  0.81262719  0.85304124    -0.35200
C51         C  0.02291516  0.79276878  0.83757929     0.01000
C52         C  0.00905978  0.80436358  0.84057445     0.07100
C53         C  0.01086668  0.83210105  0.85863093    -0.06000
H54         H  0.02613778  0.77140355  0.82543642     0.07700
H55         H  0.00257369  0.84811322  0.86633302     0.08900
Cu56       Cu  0.05427511  0.80827238  0.85753921     0.44200
Cu57       Cu  0.03518127  0.87231492  0.89263876     0.42000
Cu58       Cu  0.07489522  0.86882406  0.89921999     0.43900
N59         N  0.07644165  0.80793470  0.86190611    -0.34700
N60         N  0.08423321  0.83008222  0.87659787    -0.28900
C61         C  0.09832866  0.82298365  0.87327577    -0.05000
C62         C  0.09939699  0.79499530  0.85545140     0.07200
C63         C  0.08524070  0.78622783  0.84894006     0.01000
H64         H  0.10709429  0.83748173  0.88232225     0.08600
H65         H  0.08146738  0.76573679  0.83535990     0.07700
N66         N  0.06232682  0.90376212  0.92095726    -0.36100
N67         N  0.04806769  0.90478566  0.91881351    -0.28300
C68         C  0.04342537  0.93039790  0.93533557    -0.03600
C69         C  0.05530265  0.94656945  0.94847823     0.05000
C70         C  0.06710495  0.92879451  0.93884866     0.03100
H71         H  0.03217023  0.93674637  0.93702102     0.08200
H72         H  0.07840048  0.93368657  0.94389219     0.07100
N73         N  0.02276490  0.32614976  0.15249917    -0.27300
N74         N  0.02991302  0.34936949  0.16667637    -0.35200
C75         C  0.02049158  0.36977138  0.18012276     0.01000
C76         C  0.00658943  0.35901704  0.17422431     0.07100
C77         C  0.00849782  0.33115121  0.15657601    -0.06000
H78         H  0.02368725  0.39064265  0.19377613     0.07700
H79         H  0.00021374  0.31544236  0.14768493     0.08900
Cu80       Cu  0.05211932  0.35191183  0.16887122     0.44200
Cu81       Cu  0.03320453  0.28870751  0.13021899     0.42000
Cu82       Cu  0.07297709  0.28870639  0.13650619     0.43900
N83         N  0.07433818  0.35039530  0.17143755    -0.34700
N84         N  0.08216084  0.32738317  0.15952669    -0.28900
C85         C  0.09622154  0.33370209  0.16540110    -0.05000
C86         C  0.09727028  0.36216595  0.18185455     0.07200
C87         C  0.08311081  0.37190709  0.18525376     0.01000
H88         H  0.10496911  0.31868099  0.15796925     0.08600
H89         H  0.07931554  0.39297502  0.19711446     0.07700
N90         N  0.06059272  0.25301747  0.11636768    -0.36100
N91         N  0.04633434  0.25321704  0.11369615    -0.28300
C92         C  0.04184018  0.22659771  0.09971308    -0.03600
C93         C  0.05381847  0.20862869  0.09334536     0.05000
C94         C  0.06552101  0.22618880  0.10429483     0.03100
H95         H  0.03062990  0.22073117  0.09517712     0.08200
H96         H  0.07682092  0.22014103  0.10329822     0.07100
N97         N  0.27368220  0.61074600  0.73549950    -0.27300
N98         N  0.28125633  0.60587737  0.70293477    -0.35200
C99         C  0.29526182  0.60259160  0.71271729     0.01000
C100        C  0.29646351  0.60521892  0.75333163     0.07100
C101        C  0.28258920  0.61028577  0.76682262    -0.06000
H102        H  0.30390118  0.59858771  0.69184108     0.07700
H103        H  0.27925908  0.61430008  0.79699195     0.08900
Cu104      Cu  0.27217507  0.60331231  0.64673179     0.44200
Cu105      Cu  0.25179772  0.61990597  0.73627824     0.42000
Cu106      Cu  0.23357933  0.61478932  0.64267960     0.43900
N107        N  0.25998590  0.59813999  0.59549497    -0.34700
N108        N  0.24581597  0.60185713  0.59454144    -0.28900
C109        C  0.24094637  0.59548216  0.55814818    -0.05000
C110        C  0.25259657  0.58738900  0.53494087     0.07200
C111        C  0.26452033  0.58938382  0.55947827     0.01000
H112        H  0.22970953  0.59643292  0.54940159     0.08600
H113        H  0.27561441  0.58420187  0.55200270     0.07700
N114        N  0.22368803  0.62934847  0.69391167    -0.36100
N115        N  0.23038059  0.63136738  0.72821534    -0.28300
C116        C  0.22141673  0.64383960  0.75474163    -0.03600
C117        C  0.20840798  0.65006027  0.73621867     0.05000
C118        C  0.21025727  0.64037280  0.69765335     0.03100
H119        H  0.22437413  0.64873048  0.78494706     0.08200
H120        H  0.20270916  0.64249043  0.67347384     0.07100
N121        N  0.27196208  0.54313461  0.29526544    -0.27300
N122        N  0.27962884  0.54660501  0.32784825    -0.35200
C123        C  0.29374758  0.54687818  0.31834446     0.01000
C124        C  0.29494608  0.54380145  0.27782434     0.07100
C125        C  0.28095333  0.54150065  0.26409036    -0.06000
H126        H  0.30244935  0.54987927  0.33925763     0.07700
H127        H  0.27754181  0.53859324  0.23378588     0.08900
Cu128      Cu  0.27047835  0.55300429  0.38317284     0.44200
Cu129      Cu  0.24974344  0.53920110  0.29486221     0.42000
Cu130      Cu  0.23133033  0.55020912  0.38800291     0.43900
N131        N  0.25863187  0.56345188  0.43337073    -0.34700
N132        N  0.24434372  0.56324687  0.43477020    -0.28900
C133        C  0.24003350  0.57188403  0.47095995    -0.05000
C134        C  0.25218754  0.57768260  0.49342985     0.07200
C135        C  0.26378850  0.57208583  0.46870346     0.01000
H136        H  0.22886182  0.57348901  0.48030410     0.08600
H137        H  0.27514732  0.57429172  0.47573095     0.07700
N138        N  0.22146760  0.53271823  0.33812929    -0.36100
N139        N  0.22824369  0.52889129  0.30413051    -0.28300
C140        C  0.21936410  0.51497130  0.27875921    -0.03600
C141        C  0.20626412  0.50965304  0.29758226     0.05000
C142        C  0.20803921  0.52135403  0.33527128     0.03100
H143        H  0.22252732  0.50824717  0.24933607     0.08200
H144        H  0.20036669  0.52090626  0.35941873     0.07100
N145        N  0.74751969  0.60510144  0.93183803    -0.27300
N146        N  0.76173936  0.60237717  0.92969024    -0.35200
C147        C  0.76671872  0.59237177  0.96471541     0.01000
C148        C  0.75505708  0.58836362  0.98990221     0.07100
C149        C  0.74307979  0.59664023  0.96809333    -0.06000
H150        H  0.77795854  0.58773321  0.97104223     0.07700
H151        H  0.73192341  0.59653983  0.97782436     0.08900
Cu152      Cu  0.77362455  0.61060848  0.87853857     0.44200
Cu153      Cu  0.73460684  0.62034490  0.88580490     0.42000
Cu154      Cu  0.75273051  0.63092859  0.79247501     0.43900
N155        N  0.78248207  0.61716560  0.82264337    -0.34700
N156        N  0.77469436  0.62345991  0.79098195    -0.28900
C157        C  0.78344905  0.62555019  0.75931850    -0.05000
C158        C  0.79744051  0.62062378  0.77174976     0.07200
C159        C  0.79647180  0.61543412  0.81201842     0.01000
H160        H  0.77990650  0.63092144  0.72967821     0.08600
H161        H  0.80525088  0.61053420  0.83206429     0.07700
N162        N  0.73136282  0.64177433  0.80187420    -0.36100
N163        N  0.72462685  0.63811063  0.83601415    -0.28300
C164        C  0.71118914  0.64931299  0.83293278    -0.03600
C165        C  0.70938505  0.66072298  0.79493740     0.05000
C166        C  0.72246716  0.65537521  0.77619663     0.03100
H167        H  0.70350093  0.64975872  0.85707825     0.08200
H168        H  0.72559144  0.66173365  0.74648707     0.07100
N169        N  0.74792231  0.55941463  0.08886156    -0.27300
N170        N  0.76209718  0.56301122  0.09075162    -0.35200
C171        C  0.76691227  0.57355316  0.05570536     0.01000
C172        C  0.75516407  0.57695724  0.03082469     0.07100
C173        C  0.74332865  0.56780077  0.05282811    -0.06000
H174        H  0.77807606  0.57896891  0.04916489     0.07700
H175        H  0.73216070  0.56726377  0.04339395     0.08900
Cu176      Cu  0.77391713  0.55549318  0.14204153     0.44200
Cu177      Cu  0.73528503  0.54353492  0.13517141     0.42000
Cu178      Cu  0.75276582  0.53639608  0.22967082     0.43900
N179        N  0.78246737  0.55165891  0.19862813    -0.34700
N180        N  0.77463352  0.54614658  0.23063052    -0.28900
C181        C  0.78330325  0.54616469  0.26247525    -0.05000
C182        C  0.79727855  0.55153389  0.24981740     0.07200
C183        C  0.79638720  0.55485312  0.20923415     0.01000
H184        H  0.77975842  0.54156345  0.29237328     0.08600
H185        H  0.80518102  0.55928517  0.18891946     0.07700
N186        N  0.73145579  0.52449382  0.21995956    -0.36100
N187        N  0.72502460  0.52703228  0.18531637    -0.28300
C188        C  0.71148431  0.51623533  0.18833495    -0.03600
C189        C  0.70927007  0.50626610  0.22681922     0.05000
C190        C  0.72221753  0.51197325  0.24595897     0.03100
H191        H  0.70401618  0.51496985  0.16388615     0.08200
H192        H  0.72489714  0.50706459  0.27641019     0.07100
N193        N  0.52314121  0.83192694  0.65822933    -0.27300
N194        N  0.53059566  0.80937665  0.67330609    -0.35200
C195        C  0.52142180  0.78804039  0.68621840     0.01000
C196        C  0.50741369  0.79756735  0.67918856     0.07100
C197        C  0.50895743  0.82554001  0.66132174    -0.06000
H198        H  0.52477394  0.76751931  0.70071469     0.07700
H199        H  0.50043481  0.84034085  0.65148464     0.08900
Cu200      Cu  0.55283510  0.80902189  0.67733870     0.44200
Cu201      Cu  0.53273065  0.87066045  0.63524195     0.42000
Cu202      Cu  0.57211688  0.87217478  0.63497218     0.43900
N203        N  0.57504782  0.81294931  0.67751720    -0.34700
N204        N  0.58226538  0.83558891  0.66152257    -0.28900
C205        C  0.59652643  0.83044880  0.66566425    -0.05000
C206        C  0.59832621  0.80327150  0.68536544     0.07200
C207        C  0.58442179  0.79296005  0.69237922     0.01000
H208        H  0.60491537  0.84543478  0.65511554     0.08600
H209        H  0.58125024  0.77207002  0.70635491     0.07700
N210        N  0.55927686  0.90687782  0.61323933    -0.36100
N211        N  0.54498892  0.90655177  0.61371919    -0.28300
C212        C  0.54011089  0.93243747  0.59798777    -0.03600
C213        C  0.55187996  0.95005305  0.58684242     0.05000
C214        C  0.56383872  0.93291231  0.59713553     0.03100
H215        H  0.52877883  0.93785299  0.59491277     0.08200
H216        H  0.57511208  0.93871612  0.59318869     0.07100
N217        N  0.52377044  0.32980032  0.36911992    -0.27300
N218        N  0.53118454  0.35308927  0.35587213    -0.35200
C219        C  0.52204210  0.37459160  0.34401505     0.01000
C220        C  0.50803093  0.36444528  0.34993408     0.07100
C221        C  0.50957856  0.33582944  0.36596583    -0.06000
H222        H  0.52548598  0.39577992  0.33139500     0.07700
H223        H  0.50109317  0.32039637  0.37461063     0.08900
Cu224      Cu  0.55331308  0.35426660  0.35361759     0.44200
Cu225      Cu  0.53384233  0.29138922  0.39015922     0.42000
Cu226      Cu  0.57373073  0.29109905  0.39022780     0.43900
N227        N  0.57544187  0.35259562  0.35355145    -0.34700
N228        N  0.58317520  0.32988260  0.36697217    -0.28900
C229        C  0.59728251  0.33656358  0.36221913    -0.05000
C230        C  0.59839532  0.36489807  0.34492436     0.07200
C231        C  0.58425920  0.37418162  0.33993996     0.01000
H232        H  0.60600943  0.32182015  0.37074659     0.08600
H233        H  0.58047593  0.39496973  0.32704407     0.07700
N234        N  0.56078801  0.25571592  0.41017259    -0.36100
N235        N  0.54648895  0.25601559  0.41008142    -0.28300
C236        C  0.54155520  0.22983101  0.42476126    -0.03600
C237        C  0.55325627  0.21193473  0.43464648     0.05000
C238        C  0.56528311  0.22920875  0.42488577     0.03100
H239        H  0.53020788  0.22426940  0.42755434     0.08200
H240        H  0.57652654  0.22315700  0.42838307     0.07100
N241        N  0.33117638  0.54101966  0.23652724    -0.27300
N242        N  0.32366373  0.54769165  0.20447046    -0.35200
C243        C  0.30958655  0.54940175  0.21415168     0.01000
C244        C  0.30825690  0.54385601  0.25422495     0.07100
C245        C  0.32212342  0.53871128  0.26752098    -0.06000
H246        H  0.30100664  0.55469115  0.19363225     0.07700
H247        H  0.32539328  0.53322542  0.29735908     0.08900
Cu248      Cu  0.33279466  0.55484162  0.14921145     0.44200
Cu249      Cu  0.35321103  0.53352025  0.23708813     0.42000
Cu250      Cu  0.37150916  0.54274939  0.14445653     0.43900
N251        N  0.34504617  0.56108238  0.09845939    -0.34700
N252        N  0.35920890  0.55724922  0.09707160    -0.28900
C253        C  0.36396794  0.56379163  0.06045701    -0.05000
C254        C  0.35222508  0.57190303  0.03767674     0.07200
C255        C  0.34039592  0.56989457  0.06261246     0.01000
H256        H  0.37514759  0.56250423  0.05109539     0.08600
H257        H  0.32926197  0.57490406  0.05544721     0.07700
N258        N  0.38151234  0.52652611  0.19482703    -0.36100
N259        N  0.37476813  0.52312644  0.22898404    -0.28300
C260        C  0.38382776  0.51041281  0.25510146    -0.03600
C261        C  0.39698795  0.50549478  0.23646963     0.05000
C262        C  0.39507673  0.51614527  0.19823063     0.03100
H263        H  0.38085040  0.50457302  0.28506702     0.08200
H264        H  0.40272351  0.51534248  0.17404847     0.07100
N265        N  0.35961576  0.59772250  0.93753735    -0.27300
N266        N  0.34554263  0.59278780  0.93522448    -0.35200
C267        C  0.34072957  0.58283484  0.97049944     0.01000
C268        C  0.35236166  0.58124236  0.99599323     0.07100
C269        C  0.36416198  0.59074888  0.97413755    -0.06000
H270        H  0.32961584  0.57692683  0.97695011     0.07700
H271        H  0.37521139  0.59291215  0.98421388     0.08900
Cu272      Cu  0.33365681  0.59882726  0.88381571     0.44200
Cu273      Cu  0.37198279  0.61451417  0.89141004     0.42000
Cu274      Cu  0.35423619  0.62074821  0.79690760     0.43900
N275        N  0.32479230  0.60328640  0.82773913    -0.34700
N276        N  0.33245193  0.60994942  0.79580737    -0.28900
C277        C  0.32363139  0.61069225  0.76427738    -0.05000
C278        C  0.30973442  0.60461320  0.77709060     0.07200
C279        C  0.31083842  0.60007102  0.81745226     0.01000
H280        H  0.32700049  0.61645444  0.73457579     0.08600
H281        H  0.30215157  0.59502597  0.83787460     0.07700
N282        N  0.37531353  0.63450398  0.80685970    -0.36100
N283        N  0.38177670  0.63235169  0.84149415    -0.28300
C284        C  0.39495791  0.64495386  0.83892474    -0.03600
C285        C  0.39693039  0.65577758  0.80072984     0.05000
C286        C  0.38420213  0.64855792  0.78127648     0.03100
H287        H  0.40233944  0.64666166  0.86350582     0.08200
H288        H  0.38130846  0.65397462  0.75115420     0.07100
C289        C  0.40981962  0.48978470  0.25260581    -0.03400
C290        C  0.42300364  0.48994852  0.23172906    -0.09100
C291        C  0.43485332  0.47377210  0.24583276    -0.16800
C292        C  0.43370714  0.45727252  0.28097873     0.25400
C293        C  0.42076641  0.45741492  0.30239236    -0.18500
C294        C  0.40889995  0.47358866  0.28837891    -0.07400
C295        C  0.44579713  0.44007209  0.29487497    -0.13800
C296        C  0.45617087  0.42610293  0.30585927    -0.13500
C297        C  0.46903223  0.41064180  0.31796297     0.25300
C298        C  0.48232529  0.42551222  0.31616486    -0.18900
C299        C  0.49495606  0.41061816  0.32705467    -0.07400
C300        C  0.49449259  0.38047990  0.33981198    -0.03500
C301        C  0.48101475  0.36580892  0.34196332    -0.08800
C302        C  0.46836509  0.38082054  0.33105109    -0.16400
H303        H  0.42420478  0.50242632  0.20440245     0.11700
H304        H  0.44486756  0.47395679  0.22918106     0.11000
H305        H  0.41979507  0.44477206  0.32972053     0.10900
H306        H  0.39896784  0.47280602  0.30524034     0.11400
H307        H  0.48294272  0.44863427  0.30614919     0.11500
H308        H  0.50503555  0.42286816  0.32531529     0.11500
H309        H  0.48019879  0.34266728  0.35153316     0.11600
H310        H  0.45810138  0.36911883  0.33254385     0.10400
C311        C  0.40942679  0.67316131  0.78496097    -0.03400
C312        C  0.41010830  0.68128202  0.74469794    -0.09100
C313        C  0.42171458  0.69819929  0.73007407    -0.16800
C314        C  0.43281591  0.70721883  0.75537884     0.25400
C315        C  0.43228916  0.69922483  0.79538367    -0.18500
C316        C  0.42070150  0.68232095  0.81009781    -0.07400
C317        C  0.44491149  0.72413299  0.74025987    -0.13800
C318        C  0.45538020  0.73755534  0.72824833    -0.13500
C319        C  0.46829754  0.75254930  0.71481383     0.25300
C320        C  0.46803100  0.78311631  0.70506872    -0.18900
C321        C  0.48070233  0.79770366  0.69287508    -0.07400
C322        C  0.49383308  0.78190690  0.69048174    -0.03500
C323        C  0.49393400  0.75110029  0.69999658    -0.08800
C324        C  0.48125320  0.73656384  0.71204950    -0.16400
H325        H  0.40174082  0.67458961  0.72431427     0.11700
H326        H  0.42204655  0.70415732  0.69898169     0.11000
H327        H  0.44084909  0.70602647  0.81521802     0.10900
H328        H  0.42060676  0.67669234  0.84122184     0.11400
H329        H  0.45806263  0.79573055  0.70720069     0.11500
H330        H  0.48023446  0.82144832  0.68610721     0.11500
H331        H  0.50378422  0.73813780  0.69810104     0.11600
H332        H  0.48157498  0.71286798  0.71944161     0.10400
C333        C  0.55176293  0.98036004  0.56779209    -0.03400
C334        C  0.53866719  0.99415544  0.55680919    -0.09100
C335        C  0.53862284  0.02261731  0.53896216    -0.16800
C336        C  0.55163909  0.03781168  0.53179121     0.25400
C337        C  0.56470711  0.02429864  0.54241166    -0.18500
C338        C  0.56478715  0.99587233  0.56024178    -0.07400
C339        C  0.55161771  0.06741228  0.51413895    -0.13800
C340        C  0.55180087  0.09237483  0.49995471    -0.13500
C341        C  0.55216181  0.12235212  0.48350736     0.25300
C342        C  0.56510190  0.13424609  0.46857245    -0.18900
C343        C  0.56548883  0.16336075  0.45280117    -0.07400
C344        C  0.55290822  0.18106767  0.45165725    -0.03500
C345        C  0.53995270  0.16888525  0.46682981    -0.08800
C346        C  0.53960216  0.13978935  0.48262750    -0.16400
H347        H  0.52841111  0.98307144  0.56188868     0.11700
H348        H  0.52842153  0.03281264  0.53088611     0.11000
H349        H  0.57486688  0.03581310  0.53707567     0.10900
H350        H  0.57509909  0.98625249  0.56819607     0.11400
H351        H  0.57490545  0.12099371  0.46907692     0.11500
H352        H  0.57563479  0.17179548  0.44121658     0.11500
H353        H  0.53007476  0.18181341  0.46686233     0.11600
H354        H  0.52951956  0.13090946  0.49422816     0.10400
C355        C  0.61162363  0.38176141  0.33354586    -0.03400
C356        C  0.62533247  0.36825208  0.33568624    -0.09100
C357        C  0.63771009  0.38422689  0.32436429    -0.16800
C358        C  0.63653913  0.41385431  0.31083634     0.25400
C359        C  0.62299722  0.42752115  0.30868956    -0.18500
C360        C  0.61063271  0.41166209  0.31998987    -0.07400
C361        C  0.64917832  0.43022002  0.29864828    -0.13800
C362        C  0.65958005  0.44417216  0.28749164    -0.13500
C363        C  0.67188306  0.46059193  0.27301286     0.25300
C364        C  0.67108168  0.47588686  0.23690057    -0.18900
C365        C  0.68317852  0.49106994  0.22206514    -0.07400
C366        C  0.69625770  0.49113205  0.24321346    -0.03500
C367        C  0.69685809  0.47600221  0.27981951    -0.08800
C368        C  0.68474843  0.46081513  0.29455543    -0.16400
H369        H  0.62654311  0.34530627  0.34576603     0.11700
H370        H  0.64817183  0.37344672  0.32600554     0.11000
H371        H  0.62198510  0.45046464  0.29821499     0.10900
H372        H  0.60035711  0.42304583  0.31810462     0.11400
H373        H  0.66114090  0.47588806  0.22006427     0.11500
H374        H  0.68223932  0.50268195  0.19404234     0.11500
H375        H  0.70671897  0.47535136  0.29686771     0.11600
H376        H  0.68546932  0.44898803  0.32254983     0.10400
C377        C  0.61198077  0.78771567  0.69557993    -0.03400
C378        C  0.61193644  0.76424891  0.72359596    -0.09100
C379        C  0.62463677  0.74880863  0.73248046    -0.16800
C380        C  0.63757871  0.75652917  0.71356781     0.25400
C381        C  0.63781027  0.77997572  0.68586645    -0.18500
C382        C  0.62508897  0.79554807  0.67695910    -0.07400
C383        C  0.65057266  0.74047873  0.72324640    -0.13800
C384        C  0.66102518  0.72644454  0.73361284    -0.13500
C385        C  0.67305596  0.70948222  0.74850726     0.25300
C386        C  0.67297665  0.69954003  0.78777707    -0.18900
C387        C  0.68469421  0.68342235  0.80277566    -0.07400
C388        C  0.69670947  0.67700550  0.77866376    -0.03500
C389        C  0.69659012  0.68687708  0.73900509    -0.08800
C390        C  0.68484892  0.70301738  0.72409226    -0.16400
H391        H  0.60212364  0.75783246  0.73892072     0.11700
H392        H  0.62435783  0.73082729  0.75416378     0.11000
H393        H  0.64779270  0.78616234  0.67111068     0.10900
H394        H  0.62549940  0.81333691  0.65510094     0.11400
H395        H  0.66387489  0.70439873  0.80691102     0.11500
H396        H  0.68431905  0.67630192  0.83337006     0.11500
H397        H  0.70554293  0.68231612  0.71933645     0.11600
H398        H  0.68499997  0.71054823  0.69358632     0.10400
C399        C  0.19361391  0.49302624  0.28178955    -0.03400
C400        C  0.19343370  0.48320226  0.24224918    -0.09100
C401        C  0.18176909  0.46659131  0.22781660    -0.16800
C402        C  0.17011733  0.45959402  0.25259941     0.25400
C403        C  0.17005034  0.46961574  0.29171328    -0.18500
C404        C  0.18169983  0.48621362  0.30624553    -0.07400
C405        C  0.15826311  0.44192890  0.23811876    -0.13800
C406        C  0.14809170  0.42733696  0.22703013    -0.13500
C407        C  0.13547958  0.41087069  0.21509063     0.25300
C408        C  0.13648092  0.38053638  0.20481666    -0.18900
C409        C  0.12407606  0.36459733  0.19390460    -0.07400
C410        C  0.11051216  0.37885651  0.19319855    -0.03500
C411        C  0.10969331  0.40941100  0.20352177    -0.08800
C412        C  0.12208015  0.42523962  0.21437924    -0.16400
H413        H  0.20228598  0.48813487  0.22232538     0.11700
H414        H  0.18188604  0.45905222  0.19740687     0.11000
H415        H  0.16104279  0.46439141  0.31109664     0.10900
H416        H  0.18136949  0.49331738  0.33674195     0.11400
H417        H  0.14681911  0.36918504  0.20540981     0.11500
H418        H  0.12513937  0.34112471  0.18639730     0.11500
H419        H  0.09953153  0.42132909  0.20306126     0.11600
H420        H  0.12119449  0.44872068  0.22229786     0.10400
C421        C  0.19583191  0.66627188  0.75275059    -0.03400
C422        C  0.18244937  0.66593676  0.73310721    -0.09100
C423        C  0.17075632  0.68222446  0.74793619    -0.16800
C424        C  0.17229654  0.69905195  0.78250387     0.25400
C425        C  0.18549957  0.69931380  0.80245850    -0.18500
C426        C  0.19719633  0.68300611  0.78774901    -0.07400
C427        C  0.16036508  0.71630010  0.79722636    -0.13800
C428        C  0.15017412  0.73059877  0.80871822    -0.13500
C429        C  0.13755097  0.74685207  0.82088550     0.25300
C430        C  0.13870547  0.77135587  0.84647599    -0.18900
C431        C  0.12631086  0.78709978  0.85790115    -0.07400
C432        C  0.11262549  0.77843709  0.84384368    -0.03500
C433        C  0.11165852  0.75374270  0.81809954    -0.08800
C434        C  0.12402369  0.73812338  0.80674819    -0.16400
H435        H  0.18096950  0.65309748  0.70631226     0.11700
H436        H  0.16055161  0.68182660  0.73235105     0.11000
H437        H  0.18679311  0.71233176  0.82922727     0.10900
H438        H  0.20734608  0.68405225  0.80344794     0.11400
H439        H  0.14915892  0.77827508  0.85756027     0.11500
H440        H  0.12746725  0.80587427  0.87787149     0.11500
H441        H  0.10139867  0.74653551  0.80620097     0.11600
H442        H  0.12302941  0.71924989  0.78678423     0.10400
C443        C  0.05534439  0.97674496  0.96716758    -0.03400
C444        C  0.04232042  0.99249696  0.97287710    -0.09100
C445        C  0.04234740  0.02109136  0.98969606    -0.16800
C446        C  0.05535532  0.03442743  0.00115332     0.25400
C447        C  0.06837018  0.01902079  0.99584092    -0.18500
C448        C  0.06838233  0.99038033  0.97900054    -0.07400
C449        C  0.05529980  0.06399170  0.01809763    -0.13800
C450        C  0.05503136  0.08888101  0.03191259    -0.13500
C451        C  0.05463338  0.11873438  0.04790528     0.25300
C452        C  0.06656886  0.13007266  0.06832296    -0.18900
C453        C  0.06629944  0.15928371  0.08326056    -0.07400
C454        C  0.05404767  0.17751636  0.07802698    -0.03500
C455        C  0.04204907  0.16579621  0.05773975    -0.08800
C456        C  0.04236564  0.13661296  0.04272075    -0.16400
H457        H  0.03205568  0.98297544  0.96423440     0.11700
H458        H  0.03220536  0.03284723  0.99364979     0.11000
H459        H  0.07851612  0.02917176  0.00461835     0.10900
H460        H  0.07862706  0.97910349  0.97524066     0.11400
H461        H  0.07610422  0.11637252  0.07258978     0.11500
H462        H  0.07564934  0.16743660  0.09908551     0.11500
H463        H  0.03249803  0.17924946  0.05287605     0.11600
H464        H  0.03307476  0.12806306  0.02687498     0.10400
C465        C  0.99284138  0.37388117  0.18563076    -0.03400
C466        C  0.99300329  0.40290780  0.20202566    -0.09100
C467        C  0.98018765  0.41667642  0.21392958    -0.16800
C468        C  0.96698532  0.40177948  0.20964531     0.25400
C469        C  0.96660897  0.37313288  0.19282013    -0.18500
C470        C  0.97944942  0.35924678  0.18086445    -0.07400
C471        C  0.95394541  0.41583849  0.22345301    -0.13800
C472        C  0.94351421  0.42878122  0.23621871    -0.13500
C473        C  0.93155449  0.44552711  0.25199853     0.25300
C474        C  0.92153067  0.45871351  0.22645337    -0.18900
C475        C  0.91024131  0.47603260  0.24161605    -0.07400
C476        C  0.90883750  0.48048205  0.28263235    -0.06700
C477        C  0.91892927  0.46693217  0.30810220    -0.08800
C478        C  0.93020075  0.44955627  0.29285041    -0.16400
H479        H  0.00299160  0.41513408  0.20597513     0.11700
H480        H  0.98059866  0.43890339  0.22683044     0.11000
H481        H  0.95642661  0.36142108  0.18931464     0.10900
H482        H  0.97883580  0.33697602  0.16834600     0.11400
H483        H  0.92252011  0.45585614  0.19476025     0.11500
H484        H  0.90276026  0.48624644  0.22107443     0.11500
H485        H  0.91810735  0.46954904  0.33981107     0.11600
H486        H  0.93791327  0.43944589  0.31289629     0.10400
C487        C  0.91123436  0.67847466  0.74266953    -0.03400
C488        C  0.91054320  0.69200381  0.78019666    -0.09100
C489        C  0.92196558  0.70973532  0.79379281    -0.16800
C490        C  0.93421006  0.71413161  0.77013534     0.25400
C491        C  0.93512106  0.70041324  0.73314445    -0.18500
C492        C  0.92374470  0.68267569  0.71950004    -0.07400
C493        C  0.94598015  0.73236241  0.78377014    -0.13800
C494        C  0.95639833  0.74654763  0.79395619    -0.13500
C495        C  0.96950743  0.76155965  0.80505811     0.25300
C496        C  0.98278514  0.74788695  0.79735025    -0.18900
C497        C  0.99562346  0.76187116  0.80864744    -0.07400
C498        C  0.99537976  0.78984695  0.82791319    -0.03500
C499        C  0.98193109  0.80354661  0.83519679    -0.08800
C500        C  0.96907959  0.78946399  0.82382308    -0.16400
H501        H  0.90113629  0.68936360  0.79895115     0.11700
H502        H  0.92121036  0.72013945  0.82261568     0.11000
H503        H  0.94462385  0.70349846  0.71475608     0.10900
H504        H  0.92480240  0.67243615  0.69073028     0.11400
H505        H  0.98321868  0.72628753  0.78274013     0.11500
H506        H  0.00567468  0.75057317  0.80224513     0.11500
H507        H  0.98125366  0.82500757  0.84990244     0.11600
H508        H  0.95883091  0.80023851  0.82986831     0.10400
loop_ 
_geom_bond_atom_site_label_1 
_geom_bond_atom_site_label_2 
_geom_bond_distance 
_geom_bond_site_symmetry_2 
_ccdc_geom_bond_type 
N1            N2   1.323       .  A
N1            C5   1.343       .  A
N1           Cu9   2.066       .  S
N2            C3   1.345       .  A
N2           Cu8   2.075       .  S
C3            C4   1.383       .  A
C3            H6   1.082       .  S
C4            C5   1.381       .  A
C4           C38   1.468       .  S
C5            H7   1.083       .  S
Cu8          N11   2.075       .  S
Cu9          N19   2.065       .  S
Cu10         N12   2.065       .  S
Cu10         N18   2.065       .  S
N11          N12   1.322       .  A
N11          C15   1.345       .  A
N12          C13   1.343       .  A
C13          C14   1.380       .  A
C13          H16   1.082       .  S
C14          C15   1.383       .  A
C14         C158   1.467       .  S
C15          H17   1.082       .  S
N18          N19   1.320       .  A
N18          C22   1.343       .  A
N19          C20   1.342       .  A
C20          C21   1.388       .  A
C20          H23   1.080       .  S
C21          C22   1.388       .  A
C21         C487   1.483       .  S
C22          H24   1.081       .  S
N25          N26   1.322       .  A
N25          C29   1.344       .  A
N25         Cu33   2.068       .  S
N26          C27   1.346       .  A
N26         Cu32   2.073       .  S
C27          C28   1.383       .  A
C27          H30   1.081       .  S
C28          C29   1.381       .  A
C28         C182   1.468       .  S
C29          H31   1.081       .  S
Cu32         N35   2.073       .  S
Cu33         N43   2.068       .  S
Cu34         N36   2.076       .  S
Cu34         N42   2.076       .  S
N35          N36   1.323       .  A
N35          C39   1.345       .  A
N36          C37   1.344       .  A
C37          C38   1.382       .  A
C37          H40   1.083       .  S
C38          C39   1.382       .  A
C39          H41   1.082       .  S
N42          N43   1.321       .  A
N42          C46   1.346       .  A
N43          C44   1.343       .  A
C44          C45   1.386       .  A
C44          H47   1.082       .  S
C45          C46   1.389       .  A
C45         C476   1.484       .  S
C46          H48   1.081       .  S
N49          N50   1.319       .  A
N49          C53   1.345       .  A
N49         Cu57   2.074       .  S
N50          C51   1.341       .  A
N50         Cu56   2.057       .  S
C51          C52   1.387       .  A
C51          H54   1.080       .  S
C52          C53   1.390       .  A
C52         C498   1.485   1_455  S
C53          H55   1.081       .  S
Cu56         N59   2.057       .  S
Cu57         N67   2.075       .  S
Cu58         N60   2.079       .  S
Cu58         N66   2.080       .  S
N59          N60   1.320       .  A
N59          C63   1.340       .  A
N60          C61   1.347       .  A
C61          C62   1.390       .  A
C61          H64   1.081       .  S
C62          C63   1.384       .  A
C62         C432   1.483       .  S
C63          H65   1.081       .  S
N66          N67   1.322       .  A
N66          C70   1.345       .  A
N67          C68   1.343       .  A
C68          C69   1.388       .  A
C68          H71   1.081       .  S
C69          C70   1.389       .  A
C69         C443   1.487       .  S
C70          H72   1.081       .  S
N73          N74   1.319       .  A
N73          C77   1.346       .  A
N73         Cu81   2.072       .  S
N74          C75   1.341       .  A
N74         Cu80   2.059       .  S
C75          C76   1.387       .  A
C75          H78   1.081       .  S
C76          C77   1.391       .  A
C76         C465   1.486   1_455  S
C77          H79   1.081       .  S
Cu80         N83   2.059       .  S
Cu81         N91   2.073       .  S
Cu82         N84   2.074       .  S
Cu82         N90   2.076       .  S
N83          N84   1.320       .  A
N83          C87   1.341       .  A
N84          C85   1.346       .  A
C85          C86   1.390       .  A
C85          H88   1.081       .  S
C86          C87   1.386       .  A
C86         C410   1.484       .  S
C87          H89   1.081       .  S
N90          N91   1.323       .  A
N90          C94   1.344       .  A
N91          C92   1.344       .  A
C92          C93   1.385       .  A
C92          H95   1.081       .  S
C93          C94   1.386       .  A
C93         C454   1.481       .  S
C94          H96   1.081       .  S
N97          N98   1.323       .  A
N97         C101   1.344       .  A
N97        Cu105   2.067       .  S
N98          C99   1.346       .  A
N98        Cu104   2.084       .  S
C99         C100   1.384       .  A
C99         H102   1.081       .  S
C100        C101   1.381       .  A
C100        C278   1.470       .  S
C101        H103   1.081       .  S
Cu104       N107   2.084       .  S
Cu105       N115   2.066       .  S
Cu106       N108   2.065       .  S
Cu106       N114   2.065       .  S
N107        N108   1.322       .  A
N107        C111   1.347       .  A
N108        C109   1.343       .  A
C109        C110   1.381       .  A
C109        H112   1.083       .  S
C110        C111   1.385       .  A
C110        C134   1.472       .  S
C111        H113   1.082       .  S
N114        N115   1.320       .  A
N114        C118   1.343       .  A
N115        C116   1.343       .  A
C116        C117   1.386       .  A
C116        H119   1.081       .  S
C117        C118   1.386       .  A
C117        C421   1.480       .  S
C118        H120   1.081       .  S
N121        N122   1.322       .  A
N121        C125   1.344       .  A
N121       Cu129   2.063       .  S
N122        C123   1.344       .  A
N122       Cu128   2.073       .  S
C123        C124   1.382       .  A
C123        H126   1.082       .  S
C124        C125   1.380       .  A
C124        C244   1.466       .  S
C125        H127   1.082       .  S
Cu128       N131   2.074       .  S
Cu129       N139   2.063       .  S
Cu130       N132   2.075       .  S
Cu130       N138   2.074       .  S
N131        N132   1.323       .  A
N131        C135   1.346       .  A
N132        C133   1.344       .  A
C133        C134   1.384       .  A
C133        H136   1.083       .  S
C134        C135   1.383       .  A
C135        H137   1.082       .  S
N138        N139   1.320       .  A
N138        C142   1.344       .  A
N139        C140   1.342       .  A
C140        C141   1.387       .  A
C140        H143   1.080       .  S
C141        C142   1.389       .  A
C141        C399   1.485       .  S
C142        H144   1.081       .  S
N145        N146   1.323       .  A
N145        C149   1.344       .  A
N145       Cu153   2.078       .  S
N146        C147   1.347       .  A
N146       Cu152   2.078       .  S
C147        C148   1.384       .  A
C147        H150   1.083       .  S
C148        C149   1.383       .  A
C148        C172   1.473   1_556  S
C149        H151   1.083       .  S
Cu152       N155   2.078       .  S
Cu153       N163   2.077       .  S
Cu154       N156   2.060       .  S
Cu154       N162   2.060       .  S
N155        N156   1.322       .  A
N155        C159   1.345       .  A
N156        C157   1.344       .  A
C157        C158   1.380       .  A
C157        H160   1.082       .  S
C158        C159   1.383       .  A
C159        H161   1.082       .  S
N162        N163   1.320       .  A
N162        C166   1.342       .  A
N163        C164   1.345       .  A
C164        C165   1.391       .  A
C164        H167   1.082       .  S
C165        C166   1.386       .  A
C165        C388   1.486       .  S
C166        H168   1.081       .  S
N169        N170   1.323       .  A
N169        C173   1.344       .  A
N169       Cu177   2.073       .  S
N170        C171   1.347       .  A
N170       Cu176   2.080       .  S
C171        C172   1.385       .  A
C171        H174   1.082       .  S
C172        C173   1.382       .  A
C173        H175   1.083       .  S
Cu176       N179   2.080       .  S
Cu177       N187   2.072       .  S
Cu178       N180   2.069       .  S
Cu178       N186   2.068       .  S
N179        N180   1.323       .  A
N179        C183   1.345       .  A
N180        C181   1.345       .  A
C181        C182   1.381       .  A
C181        H184   1.081       .  S
C182        C183   1.383       .  A
C183        H185   1.081       .  S
N186        N187   1.320       .  A
N186        C190   1.343       .  A
N187        C188   1.344       .  A
C188        C189   1.388       .  A
C188        H191   1.081       .  S
C189        C190   1.387       .  A
C189        C366   1.483       .  S
C190        H192   1.082       .  S
N193        N194   1.321       .  A
N193        C197   1.346       .  A
N193       Cu201   2.084       .  S
N194        C195   1.343       .  A
N194       Cu200   2.063       .  S
C195        C196   1.386       .  A
C195        H198   1.082       .  S
C196        C197   1.389       .  A
C196        C322   1.484       .  S
C197        H199   1.081       .  S
Cu200       N203   2.062       .  S
Cu201       N211   2.085       .  S
Cu202       N204   2.084       .  S
Cu202       N210   2.084       .  S
N203        N204   1.321       .  A
N203        C207   1.341       .  A
N204        C205   1.347       .  A
C205        C206   1.390       .  A
C205        H208   1.081       .  S
C206        C207   1.384       .  A
C206        C377   1.483       .  S
C207        H209   1.081       .  S
N210        N211   1.322       .  A
N210        C214   1.345       .  A
N211        C212   1.347       .  A
C212        C213   1.391       .  A
C212        H215   1.082       .  S
C213        C214   1.390       .  A
C213        C333   1.493       .  S
C214        H216   1.082       .  S
N217        N218   1.318       .  A
N217        C221   1.345       .  A
N217       Cu225   2.074       .  S
N218        C219   1.340       .  A
N218       Cu224   2.049       .  S
C219        C220   1.386       .  A
C219        H222   1.081       .  S
C220        C221   1.391       .  A
C220        C300   1.483       .  S
C221        H223   1.081       .  S
Cu224       N227   2.049       .  S
Cu225       N235   2.076       .  S
Cu226       N228   2.084       .  S
Cu226       N234   2.085       .  S
N227        N228   1.320       .  A
N227        C231   1.339       .  A
N228        C229   1.347       .  A
C229        C230   1.392       .  A
C229        H232   1.081       .  S
C230        C231   1.383       .  A
C230        C355   1.483       .  S
C231        H233   1.081       .  S
N234        N235   1.323       .  A
N234        C238   1.346       .  A
N235        C236   1.344       .  A
C236        C237   1.387       .  A
C236        H239   1.082       .  S
C237        C238   1.389       .  A
C237        C344   1.488       .  S
C238        H240   1.082       .  S
N241        N242   1.323       .  A
N241        C245   1.343       .  A
N241       Cu249   2.067       .  S
N242        C243   1.344       .  A
N242       Cu248   2.072       .  S
C243        C244   1.382       .  A
C243        H246   1.082       .  S
C244        C245   1.380       .  A
C245        H247   1.082       .  S
Cu248       N251   2.072       .  S
Cu249       N259   2.066       .  S
Cu250       N252   2.070       .  S
Cu250       N258   2.070       .  S
N251        N252   1.323       .  A
N251        C255   1.345       .  A
N252        C253   1.344       .  A
C253        C254   1.382       .  A
C253        H256   1.083       .  S
C254        C255   1.382       .  A
C254        C268   1.468   1_554  S
C255        H257   1.082       .  S
N258        N259   1.320       .  A
N258        C262   1.344       .  A
N259        C260   1.344       .  A
C260        C261   1.388       .  A
C260        H263   1.080       .  S
C261        C262   1.388       .  A
C261        C289   1.484       .  S
C262        H264   1.081       .  S
N265        N266   1.323       .  A
N265        C269   1.344       .  A
N265       Cu273   2.068       .  S
N266        C267   1.345       .  A
N266       Cu272   2.077       .  S
C267        C268   1.383       .  A
C267        H270   1.082       .  S
C268        C269   1.381       .  A
C269        H271   1.083       .  S
Cu272       N275   2.078       .  S
Cu273       N283   2.069       .  S
Cu274       N276   2.071       .  S
Cu274       N282   2.072       .  S
N275        N276   1.322       .  A
N275        C279   1.346       .  A
N276        C277   1.345       .  A
C277        C278   1.381       .  A
C277        H280   1.081       .  S
C278        C279   1.383       .  A
C279        H281   1.081       .  S
N282        N283   1.320       .  A
N282        C286   1.344       .  A
N283        C284   1.344       .  A
C284        C285   1.388       .  A
C284        H287   1.080       .  S
C285        C286   1.388       .  A
C285        C311   1.486       .  S
C286        H288   1.081       .  S
C289        C290   1.408       .  A
C289        C294   1.408       .  A
C290        C291   1.397       .  A
C290        H303   1.082       .  S
C291        C292   1.398       .  A
C291        H304   1.083       .  S
C292        C293   1.398       .  A
C292        C295   1.436       .  S
C293        C294   1.397       .  A
C293        H305   1.084       .  S
C294        H306   1.081       .  S
C295        C296   1.204       .  T
C296        C297   1.436       .  S
C297        C298   1.396       .  A
C297        C302   1.399       .  A
C298        C299   1.395       .  A
C298        H307   1.084       .  S
C299        C300   1.408       .  A
C299        H308   1.081       .  S
C300        C301   1.408       .  A
C301        C302   1.399       .  A
C301        H309   1.081       .  S
C302        H310   1.083       .  S
C311        C312   1.409       .  A
C311        C316   1.408       .  A
C312        C313   1.398       .  A
C312        H325   1.080       .  S
C313        C314   1.398       .  A
C313        H326   1.084       .  S
C314        C315   1.398       .  A
C314        C317   1.439       .  S
C315        C316   1.398       .  A
C315        H327   1.083       .  S
C316        H328   1.081       .  S
C317        C318   1.206       .  T
C318        C319   1.439       .  S
C319        C320   1.399       .  A
C319        C324   1.399       .  A
C320        C321   1.399       .  A
C320        H329   1.083       .  S
C321        C322   1.408       .  A
C321        H330   1.082       .  S
C322        C323   1.408       .  A
C323        C324   1.398       .  A
C323        H331   1.082       .  S
C324        H332   1.084       .  S
C333        C334   1.410       .  A
C333        C338   1.410       .  A
C334        C335   1.401   1_565  A
C334        H347   1.082       .  S
C335        C336   1.400       .  A
C335        H348   1.084       .  S
C336        C337   1.399       .  A
C336        C339   1.445       .  S
C337        C338   1.400   1_545  A
C337        H349   1.084       .  S
C338        H350   1.081       .  S
C339        C340   1.209       .  T
C340        C341   1.444       .  S
C341        C342   1.400       .  A
C341        C346   1.399       .  A
C342        C343   1.400       .  A
C342        H351   1.083       .  S
C343        C344   1.408       .  A
C343        H352   1.082       .  S
C344        C345   1.409       .  A
C345        C346   1.400       .  A
C345        H353   1.081       .  S
C346        H354   1.084       .  S
C355        C356   1.407       .  A
C355        C360   1.410       .  A
C356        C357   1.398       .  A
C356        H369   1.082       .  S
C357        C358   1.399       .  A
C357        H370   1.083       .  S
C358        C359   1.396       .  A
C358        C361   1.435       .  S
C359        C360   1.395       .  A
C359        H371   1.084       .  S
C360        H372   1.080       .  S
C361        C362   1.203       .  T
C362        C363   1.435       .  S
C363        C364   1.398       .  A
C363        C368   1.398       .  A
C364        C365   1.397       .  A
C364        H373   1.083       .  S
C365        C366   1.408       .  A
C365        H374   1.082       .  S
C366        C367   1.408       .  A
C367        C368   1.397       .  A
C367        H375   1.081       .  S
C368        H376   1.084       .  S
C377        C378   1.408       .  A
C377        C382   1.407       .  A
C378        C379   1.396       .  A
C378        H391   1.081       .  S
C379        C380   1.397       .  A
C379        H392   1.084       .  S
C380        C381   1.400       .  A
C380        C383   1.438       .  S
C381        C382   1.400       .  A
C381        H393   1.083       .  S
C382        H394   1.082       .  S
C383        C384   1.205       .  T
C384        C385   1.438       .  S
C385        C386   1.398       .  A
C385        C390   1.398       .  A
C386        C387   1.397       .  A
C386        H395   1.083       .  S
C387        C388   1.407       .  A
C387        H396   1.082       .  S
C388        C389   1.410       .  A
C389        C390   1.398       .  A
C389        H397   1.081       .  S
C390        H398   1.084       .  S
C399        C400   1.409       .  A
C399        C404   1.408       .  A
C400        C401   1.397       .  A
C400        H413   1.081       .  S
C401        C402   1.397       .  A
C401        H414   1.083       .  S
C402        C403   1.398       .  A
C402        C405   1.437       .  S
C403        C404   1.397       .  A
C403        H415   1.083       .  S
C404        H416   1.081       .  S
C405        C406   1.204       .  T
C406        C407   1.437       .  S
C407        C408   1.399       .  A
C407        C412   1.397       .  A
C408        C409   1.399       .  A
C408        H417   1.083       .  S
C409        C410   1.408       .  A
C409        H418   1.081       .  S
C410        C411   1.408       .  A
C411        C412   1.395       .  A
C411        H419   1.081       .  S
C412        H420   1.084       .  S
C421        C422   1.407       .  A
C421        C426   1.407       .  A
C422        C423   1.397       .  A
C422        H435   1.083       .  S
C423        C424   1.399       .  A
C423        H436   1.083       .  S
C424        C425   1.397       .  A
C424        C427   1.435       .  S
C425        C426   1.396       .  A
C425        H437   1.084       .  S
C426        H438   1.081       .  S
C427        C428   1.203       .  T
C428        C429   1.436       .  S
C429        C430   1.400       .  A
C429        C434   1.396       .  A
C430        C431   1.400       .  A
C430        H439   1.083       .  S
C431        C432   1.407       .  A
C431        H440   1.082       .  S
C432        C433   1.408       .  A
C433        C434   1.394       .  A
C433        H441   1.081       .  S
C434        H442   1.084       .  S
C443        C444   1.409       .  A
C443        C448   1.409       .  A
C444        C445   1.397   1_565  A
C444        H457   1.081       .  S
C445        C446   1.397   1_556  A
C445        H458   1.084       .  S
C446        C447   1.399   1_554  A
C446        C449   1.438       .  S
C447        C448   1.399   1_545  A
C447        H459   1.084   1_556  S
C448        H460   1.081       .  S
C449        C450   1.205       .  T
C450        C451   1.438       .  S
C451        C452   1.399       .  A
C451        C456   1.399       .  A
C452        C453   1.398       .  A
C452        H461   1.083       .  S
C453        C454   1.407       .  A
C453        H462   1.081       .  S
C454        C455   1.407       .  A
C455        C456   1.398       .  A
C455        H463   1.081       .  S
C456        H464   1.084       .  S
C465        C466   1.409       .  A
C465        C470   1.409       .  A
C466        C467   1.395       .  A
C466        H479   1.080   1_655  S
C467        C468   1.397       .  A
C467        H480   1.084       .  S
C468        C469   1.399       .  A
C468        C471   1.438       .  S
C469        C470   1.400       .  A
C469        H481   1.083       .  S
C470        H482   1.081       .  S
C471        C472   1.205       .  T
C472        C473   1.438       .  S
C473        C474   1.398       .  A
C473        C478   1.400       .  A
C474        C475   1.397       .  A
C474        H483   1.084       .  S
C475        C476   1.408       .  A
C475        H484   1.082       .  S
C476        C477   1.407       .  A
C477        C478   1.399       .  A
C477        H485   1.082       .  S
C478        H486   1.083       .  S
C487        C488   1.409       .  A
C487        C492   1.408       .  A
C488        C489   1.398       .  A
C488        H501   1.081       .  S
C489        C490   1.398       .  A
C489        H502   1.083       .  S
C490        C491   1.397       .  A
C490        C493   1.435       .  S
C491        C492   1.395       .  A
C491        H503   1.084       .  S
C492        H504   1.081       .  S
C493        C494   1.203       .  T
C494        C495   1.435       .  S
C495        C496   1.397       .  A
C495        C500   1.398       .  A
C496        C497   1.395       .  A
C496        H505   1.084       .  S
C497        C498   1.409       .  A
C497        H506   1.080   1_655  S
C498        C499   1.409       .  A
C499        C500   1.399       .  A
C499        H507   1.081       .  S
C500        H508   1.083       .  S
