geometry optimzed in LAMMPS
_audit_creation_date              2020-11-30 
_audit_creation_method            'lammps2cif' 
_symmetry_space_group_name_H-M    'P1' 
_symmetry_Int_Tables_number       1 
_symmetry_cell_setting            triclinic 
loop_ 
_symmetry_equiv_pos_as_xyz 
  x,y,z 
_cell_length_a                    18.997687195225467 
_cell_length_b                    39.461300626604796 
_cell_length_c                    39.402897722601644 
_cell_angle_alpha                 89.10005944000393 
_cell_angle_beta                  104.0749086205458 
_cell_angle_gamma                 87.70500489564537 
loop_ 
_atom_site_label 
_atom_site_type_symbol 
_atom_site_fract_x 
_atom_site_fract_y 
_atom_site_fract_z 
_atom_site_charge 
C1          C  0.59287694  0.19668427  0.46454632    -0.02890
C2          C  0.90899154  0.19597082  0.03472216    -0.02890
O3          O  0.55205903  0.47574508  0.45170501    -0.72180
O4          O  0.58773954  0.49402347  0.04890849    -0.72400
O5          O  0.55549152  0.43833017  0.01018718    -0.72250
O6          O  0.58513161  0.03075173  0.49107841    -0.72260
O7          O  0.47069748  0.04354850  0.48494497    -0.72220
O8          O  0.44117601  0.45167483  0.00406008    -0.72240
O9          O  0.47246260  0.00627258  0.04225907    -0.72180
O10         O  0.43716247  0.48810154  0.44602563    -0.72370
V11         V  0.56801925  0.48498097  0.00027767     1.35240
V12         V  0.45771000  0.49714766  0.49434821     1.35170
C13         C  0.48803919  0.47844360  0.43250943     0.77060
C14         C  0.53559062  0.00325297  0.06190197     0.77120
C15         C  0.49252996  0.42923518  0.01030938     0.76990
C16         C  0.53393146  0.05310988  0.48608003     0.76950
O17         O  0.91613049  0.50105436  0.45919124    -0.72180
O18         O  0.97272669  0.47255438  0.05466524    -0.72400
O19         O  0.93317856  0.03208245  0.02019692    -0.72250
O20         O  0.95601507  0.44143874  0.49309480    -0.72260
O21         O  0.06960547  0.44926481  0.49583489    -0.72220
O22         O  0.04461946  0.04062634  0.01901751    -0.72240
O23         O  0.08494575  0.48300944  0.05618707    -0.72180
O24         O  0.02881146  0.00755120  0.45930399    -0.72370
V25         V  0.94672469  0.48687542  0.50690557     1.35240
V26         V  0.05492383  0.49483273  0.00761796     1.35170
C27         C  0.96258289  0.50914228  0.44278099     0.77060
C28         C  0.03797551  0.47381119  0.07187835     0.77120
C29         C  0.98450720  0.05210986  0.02309014     0.76990
C30         C  0.01663688  0.43007416  0.48920833     0.76950
C31         C  0.40323158  0.28913047  0.03032509    -0.02890
C32         C  0.08131845  0.28810577  0.46500998    -0.02890
C33         C  0.08566695  0.44418806  0.22288492    -0.02890
C34         C  0.41038690  0.43920110  0.28417714    -0.02890
O35         O  0.47123611  0.21532518  0.29244411    -0.72180
O36         O  0.42512273  0.24149305  0.19606073    -0.72400
O37         O  0.46749007  0.18312728  0.23285239    -0.72250
O38         O  0.42959824  0.27344530  0.25619022    -0.72260
O39         O  0.54070049  0.28571176  0.25827890    -0.72220
O40         O  0.58166328  0.19336668  0.23982575    -0.72240
O41         O  0.53856066  0.25114275  0.19986792    -0.72180
O42         O  0.58283262  0.22918022  0.29743639    -0.72370
V43         V  0.45059569  0.22859103  0.24440213     1.35240
V44         V  0.55891393  0.23949108  0.24861817     1.35170
C45         C  0.53435072  0.21864910  0.31146745     0.77060
C46         C  0.47372274  0.25112414  0.18160209     0.77120
C47         C  0.53137619  0.17254168  0.23351726     0.76990
C48         C  0.47791793  0.29513599  0.26094891     0.76950
O49         O  0.93927730  0.25670073  0.29542037    -0.72180
O50         O  0.90098443  0.23762057  0.19859921    -0.72400
O51         O  0.90394417  0.20087786  0.25698957    -0.72250
O52         O  0.93698560  0.29333651  0.23695723    -0.72260
O53         O  0.05130718  0.27961097  0.24370892    -0.72220
O54         O  0.01770613  0.18759383  0.26135828    -0.72240
O55         O  0.01529725  0.22518541  0.20411226    -0.72180
O56         O  0.05285719  0.24226945  0.30103287    -0.72370
V57         V  0.92236419  0.24683585  0.24708656     1.35240
V58         V  0.03198928  0.23394445  0.25244205     1.35170
C59         C  0.00289618  0.25314787  0.31475719     0.77060
C60         C  0.95148884  0.22794157  0.18477284     0.77120
C61         C  0.95512005  0.17829997  0.26184112     0.76990
C62         C  0.00059691  0.30232698  0.23764322     0.76950
C63         C  0.58556082  0.02726503  0.21216575    -0.02890
C64         C  0.89651933  0.03484965  0.29021005    -0.02890
C65         C  0.70189739  0.99797388  0.25601299    -0.09550
C66         C  0.67045991  0.02018044  0.22717441     0.06640
C67         C  0.72131116  0.03970776  0.21575965    -0.03320
C68         C  0.78164457  0.05013707  0.24049935    -0.07770
C69         C  0.81527205  0.02876829  0.26980453     0.05760
C70         C  0.77576675  0.99936905  0.27385927    -0.02800
Br71       Br  0.81527917  0.95986225  0.30205541    -0.02490
H72         H  0.67036698  0.97981281  0.26578320     0.09670
H73         H  0.81159002  0.06957560  0.23139658     0.07690
Br74       Br  0.75529023  0.02303216  0.17662928    -0.02920
C75         C  0.96896375  0.08122863  0.26608639    -0.09550
C76         C  0.91382189  0.07289870  0.28310948     0.06640
C77         C  0.87376514  0.10105435  0.29295225    -0.03320
C78         C  0.88788260  0.13453041  0.28535108    -0.07770
C79         C  0.94217845  0.14206160  0.26844701     0.05760
C80         C  0.98292034  0.11485810  0.25871089    -0.02800
Br81       Br  0.05656425  0.12144213  0.23366675    -0.02490
H82         H  0.00422085  0.06187460  0.25917067     0.09670
H83         H  0.85623679  0.15509538  0.29319081     0.07690
Br84       Br  0.79670318  0.09749496  0.31620697    -0.02920
C85         C  0.52179740  0.08645925  0.19283817    -0.09550
C86         C  0.56905172  0.06558866  0.21909064     0.06640
C87         C  0.59615532  0.08083589  0.25205645    -0.03320
C88         C  0.58744217  0.11601805  0.25546958    -0.07770
C89         C  0.54612355  0.13644822  0.22782387     0.05760
C90         C  0.51110395  0.12114882  0.19683058    -0.02800
Br91       Br  0.44813577  0.14653783  0.15870997    -0.02490
H92         H  0.49124510  0.07608986  0.16878352     0.09670
H93         H  0.60921195  0.12720054  0.28059568     0.07690
Br94       Br  0.63308492  0.05533952  0.29508824    -0.02920
C95         C  0.50118255  0.44761796  0.24439544    -0.09550
C96         C  0.45119233  0.46175211  0.26232157     0.06640
C97         C  0.44141088  0.99786702  0.26013030    -0.03320
C98         C  0.48615909  0.01764902  0.24547037    -0.07770
C99         C  0.54066384  0.00363213  0.23039300     0.05760
C100        C  0.54535273  0.46755645  0.22905859    -0.02800
Br101      Br  0.60724381  0.44305175  0.20471232    -0.02490
H102        H  0.50606898  0.42064257  0.24121731     0.09670
H103        H  0.47519978  0.04468188  0.24526543     0.07690
Br104      Br  0.37321518  0.02429328  0.27897846    -0.02920
C105        C  0.37486460  0.37683043  0.27056213    -0.09550
C106        C  0.43012969  0.39998347  0.28281994     0.06640
C107        C  0.50208069  0.38516533  0.29397803    -0.03320
C108        C  0.51662961  0.35114565  0.28659635    -0.07770
C109        C  0.46093367  0.33048820  0.26949128     0.05760
C110        C  0.38905299  0.34379012  0.26196465    -0.02800
Br111      Br  0.30589712  0.32002096  0.23734139    -0.02490
H112        H  0.31839814  0.38384325  0.26691908     0.09670
H113        H  0.57202923  0.34082782  0.29422393     0.07690
Br114      Br  0.58439367  0.40925219  0.31843682    -0.02920
C115        C  0.03286823  0.46088372  0.27443323    -0.09550
C116        C  0.03208690  0.46659085  0.23888674     0.06640
C117        C  0.97441337  0.98889198  0.21999418    -0.03320
C118        C  0.93626657  0.01023865  0.23795388    -0.07770
C119        C  0.94396879  0.00819421  0.27453612     0.05760
C120        C  0.98978132  0.48020752  0.29216292    -0.02800
Br121      Br  0.99709887  0.46219666  0.33868786    -0.02490
H122        H  0.06932976  0.44116500  0.28912374     0.09670
H123        H  0.89889895  0.02899943  0.22246203     0.07690
Br124      Br  0.92953202  0.98843121  0.17051844    -0.02920
C125        C  0.99205845  0.39726341  0.21297935    -0.09550
C126        C  0.06375821  0.40672045  0.22915084     0.06640
C127        C  0.10803781  0.38148507  0.25170695    -0.03320
C128        C  0.08694288  0.34800921  0.25202792    -0.07770
C129        C  0.01830255  0.33846371  0.23381715     0.05760
C130        C  0.96945939  0.36386331  0.21492738    -0.02800
Br131      Br  0.87269608  0.35442693  0.18988048    -0.02490
H132        H  0.95383357  0.41588907  0.19745621     0.09670
H133        H  0.12305553  0.32950875  0.26908196     0.07690
Br134      Br  0.18616232  0.38989885  0.29053022    -0.02920
C135        C  0.27894203  0.46242072  0.28456391    -0.09550
C136        C  0.32669533  0.44633750  0.26677481     0.06640
C137        C  0.29403297  0.43644537  0.23202356    -0.03320
C138        C  0.21870633  0.43369104  0.22131559    -0.07770
C139        C  0.16974601  0.44904773  0.23910976     0.05760
C140        C  0.20385672  0.46768378  0.26926254    -0.02800
Br141      Br  0.16146968  0.50473933  0.28936238    -0.02490
H142        H  0.30051779  0.47370558  0.30954418     0.09670
H143        H  0.19832790  0.41992938  0.19769249     0.07690
Br144      Br  0.34684133  0.42019015  0.19910681    -0.02920
C145        C  0.99006266  0.27840177  0.40634417    -0.09550
C146        C  0.06403312  0.28122715  0.42430257     0.06640
C147        C  0.11422395  0.27959524  0.40252840    -0.03320
C148        C  0.09273200  0.26900698  0.36801208    -0.07770
C149        C  0.02053102  0.26282310  0.35208385     0.05760
C150        C  0.96827642  0.26852688  0.37150424    -0.02800
Br151      Br  0.86663577  0.26173194  0.35330149    -0.02490
H152        H  0.94814384  0.28173274  0.42014738     0.09670
H153        H  0.13294104  0.26734177  0.35267227     0.07690
Br154      Br  0.20873620  0.29682038  0.41211837    -0.02920
C155        C  0.42010798  0.23927754  0.11933013    -0.09550
C156        C  0.45480237  0.26176942  0.14415325     0.06640
C157        C  0.46909684  0.29408473  0.13282748    -0.03320
C158        C  0.45040257  0.30303802  0.09701730    -0.07770
C159        C  0.41923650  0.27987173  0.07085415     0.05320
C160        C  0.40354389  0.24734027  0.08344919    -0.02800
Br161      Br  0.36632747  0.21009402  0.05460051    -0.02490
H162        H  0.40772085  0.21454502  0.12793410     0.09670
H163        H  0.45906894  0.32886914  0.09045240     0.07690
Br164      Br  0.50966036  0.32780099  0.16562926    -0.02920
C165        C  0.28896089  0.25973355  0.99291079    -0.09550
C166        C  0.31910725  0.28506099  0.01659540     0.06640
C167        C  0.26791104  0.30568542  0.02900259    -0.03320
C168        C  0.19462342  0.30719074  0.51091252    -0.07770
C169        C  0.16453613  0.28421638  0.48473071     0.05760
C170        C  0.21294896  0.25704613  0.48033394    -0.02800
Br171      Br  0.18136122  0.21630119  0.45635026    -0.02490
H172        H  0.32400066  0.24075101  0.98508359     0.09670
H173        H  0.16214638  0.32804256  0.51709405     0.07690
Br174      Br  0.29261559  0.33813354  0.06556997    -0.02920
C175        C  0.97634540  0.37100134  0.48226926    -0.09550
C176        C  0.02551655  0.39509969  0.47769577     0.06640
C177        C  0.08061377  0.38533188  0.46115203    -0.03320
C178        C  0.09213880  0.35115660  0.45483428    -0.07770
C179        C  0.05159786  0.32560419  0.46546480     0.05760
C180        C  0.98621441  0.33692755  0.47454587    -0.02800
Br181      Br  0.90182297  0.31090872  0.47243883    -0.02490
H182        H  0.92919556  0.37875554  0.49160298     0.09670
H183        H  0.13581866  0.34432785  0.44302131     0.07690
Br184      Br  0.13986471  0.41727703  0.44498387    -0.02920
C185        C  0.99460879  0.53158628  0.38958568    -0.09550
C186        C  0.94113919  0.01972719  0.40513878     0.06640
C187        C  0.86990525  0.01785014  0.38402409    -0.03320
C188        C  0.85591796  0.02448187  0.34797141    -0.07770
C189        C  0.91151269  0.03174444  0.33103535     0.05760
C190        C  0.98082998  0.03804013  0.35352236    -0.02800
Br191      Br  0.06367118  0.55232976  0.33832916    -0.02490
H192        H  0.04892326  0.53489548  0.40547522     0.09670
H193        H  0.80008863  0.02398863  0.33358078     0.07690
Br194      Br  0.78794643  0.00616355  0.40168788    -0.02920
C195        C  0.08257434  0.49033842  0.13364623    -0.09550
C196        C  0.05775033  0.46524499  0.10953799     0.06640
C197        C  0.04780393  0.43278918  0.12174829    -0.03320
C198        C  0.05954809  0.42612157  0.15760405    -0.07770
C199        C  0.07629252  0.45203256  0.18267443     0.05760
C200        C  0.09222841  0.48421457  0.16972282    -0.02800
Br201      Br  0.12210390  0.02222247  0.19872828    -0.02490
H202        H  0.09150853  0.01537645  0.12424513     0.09670
H203        H  0.05663842  0.39996627  0.16513986     0.07690
Br204      Br  0.02038264  0.39626644  0.09023700    -0.02920
C205        C  0.40384796  0.38551098  0.00100848    -0.09550
C206        C  0.47522815  0.39337872  0.01531678     0.06640
C207        C  0.52449372  0.36712392  0.03203322    -0.03320
C208        C  0.49974704  0.33423765  0.03521542    -0.07770
C209        C  0.42552869  0.32630065  0.02277007     0.05760
C210        C  0.37915692  0.35315578  0.00293930    -0.02800
Br211      Br  0.28530906  0.35213521  0.97144647    -0.02490
H212        H  0.36642606  0.40503727  0.98629811     0.09670
H213        H  0.53871400  0.31480698  0.04881062     0.07690
Br214      Br  0.62465982  0.37476161  0.05257661    -0.02920
C215        C  0.50260855  0.49433277  0.11778215    -0.09550
C216        C  0.54657678  0.00998430  0.09914306     0.06640
C217        C  0.59062332  0.03567898  0.11492440    -0.03320
C218        C  0.59721325  0.04198647  0.15018673    -0.07770
C219        C  0.56392961  0.02206466  0.17145681     0.05760
C220        C  0.50651373  0.50209629  0.15263960    -0.02800
Br221      Br  0.41721913  0.49428375  0.16564815    -0.02490
H222        H  0.46093769  0.47794223  0.10425025     0.09670
H223        H  0.62861258  0.06323532  0.16101341     0.07690
Br224      Br  0.63782938  0.06493160  0.08914673    -0.02920
C225        C  0.42225435  0.44356072  0.38501980    -0.09550
C226        C  0.47143232  0.46881001  0.39561952     0.06640
C227        C  0.50433687  0.48338199  0.37122398    -0.03320
C228        C  0.48625344  0.47310667  0.33647498    -0.07770
C229        C  0.43287701  0.44875799  0.32411466     0.05760
C230        C  0.40478738  0.43265678  0.35050786    -0.02800
Br231      Br  0.34860400  0.39328364  0.34466820    -0.02490
H232        H  0.39906508  0.43123976  0.40430440     0.09670
H233        H  0.51704861  0.48414581  0.31988502     0.07690
Br234      Br  0.57194987  0.51863077  0.38375652    -0.02920
C235        C  0.85952690  0.21169195  0.08932854    -0.09550
C236        C  0.91930491  0.20416057  0.07463538     0.06640
C237        C  0.98940278  0.20244143  0.09867000    -0.03320
C238        C  0.99729712  0.21054526  0.13369445    -0.07770
C239        C  0.93768453  0.21972474  0.14711579     0.05760
C240        C  0.86775169  0.21976602  0.12444738    -0.02800
Br241      Br  0.77963850  0.22951025  0.13899616    -0.02490
H242        H  0.80448472  0.21037275  0.07416729     0.09670
H243        H  0.05154302  0.20964458  0.15069186     0.07690
Br244      Br  0.08007308  0.19085070  0.08716366    -0.02920
C245        C  0.01211137  0.23390348  0.46890261    -0.09550
C246        C  0.04242493  0.26319341  0.48527307     0.06640
C247        C  0.03271537  0.26845420  0.01974316    -0.03320
C248        C  0.98756349  0.24790708  0.03352323    -0.07770
C249        C  0.95404973  0.21960091  0.01620449     0.05760
C250        C  0.96470464  0.21428955  0.48192673    -0.02800
Br251      Br  0.92246063  0.18032495  0.44963093    -0.02490
H252        H  0.02350974  0.22600069  0.44463719     0.09670
H253        H  0.97800975  0.25520061  0.05833627     0.07690
Br254      Br  0.06996757  0.30435708  0.05049657    -0.02920
C255        C  0.99758407  0.14741627  0.02468845    -0.09550
C256        C  0.93511456  0.15779879  0.03601127     0.06640
C257        C  0.89686440  0.13160383  0.04830447    -0.03320
C258        C  0.91599837  0.09761641  0.04490375    -0.07770
C259        C  0.97332172  0.08814605  0.03010859     0.05760
C260        C  0.01568193  0.11347464  0.02076055    -0.02800
Br261      Br  0.09554271  0.10459557  0.99959770    -0.02490
H262        H  0.03327524  0.16550200  0.01797867     0.09670
H263        H  0.88425570  0.07829971  0.05315058     0.07690
Br264      Br  0.81396783  0.13843537  0.06766026    -0.02920
C265        C  0.58036990  0.23750486  0.37178486    -0.09550
C266        C  0.55015083  0.21205705  0.34944810     0.06640
C267        C  0.53361453  0.18157958  0.36372040    -0.03320
C268        C  0.54746731  0.17694156  0.40001782    -0.07770
C269        C  0.57595290  0.20273364  0.42364809     0.05760
C270        C  0.59267317  0.23360429  0.40810565    -0.02800
Br271      Br  0.62809985  0.27345902  0.43299726    -0.02490
H272        H  0.59256121  0.26125023  0.36070733     0.09670
H273        H  0.53830388  0.15201505  0.40898718     0.07690
Br274      Br  0.49685943  0.14441508  0.33473537    -0.02920
C275        C  0.50884201  0.24353117  0.03338814    -0.09550
C276        C  0.45215035  0.26502285  0.01274675     0.06640
C277        C  0.44917072  0.26601709  0.47632153    -0.03320
C278        C  0.49349581  0.24435622  0.46194249    -0.07770
C279        C  0.54735539  0.22183411  0.48228110     0.05760
C280        C  0.55397820  0.22200024  0.01902965    -0.02800
Br281      Br  0.62340287  0.19403505  0.05267770    -0.02490
H282        H  0.52083864  0.24338544  0.06156214     0.09670
H283        H  0.48321856  0.24516040  0.43382192     0.07690
Br284      Br  0.39156206  0.29733511  0.44272809    -0.02920
C285        C  0.62705916  0.13677749  0.49439410    -0.09550
C286        C  0.57297336  0.15999402  0.47481659     0.06640
C287        C  0.50126608  0.14763493  0.46501291    -0.03320
C288        C  0.48988939  0.11301902  0.46932121    -0.07770
C289        C  0.54791029  0.08961528  0.48298980     0.05760
C290        C  0.61746448  0.10211049  0.49568910    -0.02800
Br291      Br  0.70423850  0.07406089  0.51390816    -0.02490
H292        H  0.67943713  0.14474420  0.50819800     0.09670
H293        H  0.43533817  0.10418520  0.46067455     0.07690
Br294      Br  0.41575387  0.17486989  0.44302033    -0.02920
C295        C  0.79893816  0.17580134  0.48815269    -0.09550
C296        C  0.82837948  0.20062043  0.01233986     0.06640
C297        C  0.78208046  0.22984580  0.01263821    -0.03320
C298        C  0.70681198  0.22824768  0.99855338    -0.07770
C299        C  0.67689075  0.20127505  0.47722885     0.05760
C300        C  0.72811048  0.17839134  0.46767207    -0.02800
Br301      Br  0.70609471  0.14522352  0.43164634    -0.02490
H302        H  0.83101059  0.15378157  0.48412317     0.09670
H303        H  0.67226151  0.24889803  0.00382229     0.07690
Br304      Br  0.81463230  0.27187526  0.03370746    -0.02920
C305        C  0.59287099  0.19669204  0.96454476    -0.02890
C306        C  0.90899830  0.19596213  0.53472622    -0.02890
O307        O  0.55206069  0.47575319  0.95170184    -0.72180
O308        O  0.58773698  0.49402216  0.54891043    -0.72400
O309        O  0.55548950  0.43832559  0.51019203    -0.72250
O310        O  0.58513366  0.03075791  0.99107861    -0.72260
O311        O  0.47069928  0.04355412  0.98494470    -0.72220
O312        O  0.44117322  0.45166988  0.50406293    -0.72240
O313        O  0.47245932  0.00626969  0.54226026    -0.72180
O314        O  0.43716394  0.48810829  0.94602352    -0.72370
V315        V  0.56801707  0.48497580  0.50028022     1.35240
V316        V  0.45771243  0.49715273  0.99434648     1.35170
C317        C  0.48804052  0.47845164  0.93250664     0.77060
C318        C  0.53558781  0.00325293  0.56190299     0.77120
C319        C  0.49252732  0.42923027  0.51031249     0.76990
C320        C  0.53393305  0.05311596  0.98608008     0.76950
O321        O  0.91613464  0.50106092  0.95919516    -0.72180
O322        O  0.97272362  0.47254764  0.55466083    -0.72400
O323        O  0.93317610  0.03207533  0.52019300    -0.72250
O324        O  0.95601935  0.44144589  0.99309923    -0.72260
O325        O  0.06961042  0.44927196  0.99584098    -0.72220
O326        O  0.04461760  0.04061852  0.51901400    -0.72240
O327        O  0.08494301  0.48300143  0.55618184    -0.72180
O328        O  0.02881607  0.00755712  0.95930837    -0.72370
V329        V  0.94672813  0.48688244  0.00690987     1.35240
V330        V  0.05492031  0.49482539  0.50761304     1.35170
C331        C  0.96258802  0.50914708  0.94278473     0.77060
C332        C  0.03797243  0.47380484  0.57187367     0.77120
C333        C  0.98450586  0.05210221  0.52308705     0.76990
C334        C  0.01664169  0.43008143  0.98921340     0.76950
C335        C  0.40323060  0.28912436  0.53032120    -0.02890
C336        C  0.08132092  0.28811415  0.96501087    -0.02890
C337        C  0.08567017  0.44419424  0.72288257    -0.02890
C338        C  0.41039198  0.43920934  0.78417410    -0.02890
O339        O  0.47122238  0.21533423  0.79244257    -0.72180
O340        O  0.42511222  0.24150068  0.69605900    -0.72400
O341        O  0.46747060  0.18313508  0.73285088    -0.72250
O342        O  0.42959302  0.27345449  0.75618816    -0.72260
O343        O  0.54069668  0.28571761  0.75827548    -0.72220
O344        O  0.58164586  0.19337056  0.73982509    -0.72240
O345        O  0.53855235  0.25114547  0.69986580    -0.72180
O346        O  0.58282062  0.22918650  0.79743472    -0.72370
V347        V  0.45058344  0.22859945  0.74440048     1.35240
V348        V  0.55890353  0.23949587  0.74861628     1.35170
C349        C  0.53433744  0.21865706  0.81146587     0.77060
C350        C  0.47371442  0.25112810  0.68159995     0.77120
C351        C  0.53135526  0.17254739  0.73351568     0.76990
C352        C  0.47791541  0.29514382  0.76094566     0.76950
O353        O  0.93929313  0.25670690  0.79542101    -0.72180
O354        O  0.90100190  0.23762237  0.69860129    -0.72400
O355        O  0.90396555  0.20088222  0.75699336    -0.72250
O356        O  0.93699892  0.29334062  0.73695670    -0.72260
O357        O  0.05132113  0.27961676  0.74370819    -0.72220
O358        O  0.01772861  0.18759979  0.76136268    -0.72240
O359        O  0.01531517  0.22518849  0.70411427    -0.72180
O360        O  0.05287434  0.24227790  0.80103432    -0.72370
V361        V  0.92238132  0.24684003  0.74708796     1.35240
V362        V  0.03200727  0.23395029  0.75244378     1.35170
C363        C  0.00291181  0.25315568  0.81475809     0.77060
C364        C  0.95150605  0.22794253  0.68477519     0.77120
C365        C  0.95514342  0.17830529  0.76184623     0.76990
C366        C  0.00060943  0.30233205  0.73764244     0.76950
C367        C  0.58556995  0.02727411  0.71216398    -0.02890
C368        C  0.89653412  0.03485670  0.79021282    -0.02890
C369        C  0.70191596  0.99798288  0.75600136    -0.09550
C370        C  0.67047338  0.02019461  0.72716792     0.06640
C371        C  0.72131777  0.03973716  0.71576310    -0.03320
C372        C  0.78165538  0.05015786  0.74050703    -0.07770
C373        C  0.81528502  0.02878050  0.76980508     0.05760
C374        C  0.77578296  0.99937814  0.77384985    -0.02800
Br375      Br  0.81529800  0.95986658  0.80203761    -0.02490
H376        H  0.67039036  0.97981701  0.76576748     0.09670
H377        H  0.81160178  0.06959992  0.73141064     0.07690
Br378      Br  0.75528838  0.02311244  0.67661061    -0.02920
C379        C  0.96898218  0.08123426  0.76608969    -0.09550
C380        C  0.91384574  0.07290517  0.78311661     0.06640
C381        C  0.87379999  0.10106124  0.79296592    -0.03320
C382        C  0.88791811  0.13453701  0.78536455    -0.07770
C383        C  0.94220468  0.14206734  0.76845440     0.05760
C384        C  0.98293948  0.11486359  0.75871408    -0.02800
Br385      Br  0.05657166  0.12144757  0.73366290    -0.02490
H386        H  0.00423250  0.06187967  0.75916978     0.09670
H387        H  0.85627971  0.15510243  0.79320845     0.07690
Br388      Br  0.79675255  0.09750280  0.81623025    -0.02920
C389        C  0.52176285  0.08646052  0.69284371    -0.09550
C390        C  0.56905186  0.06559642  0.71908945     0.06640
C391        C  0.59617194  0.08084657  0.75205190    -0.03320
C392        C  0.58745065  0.11602825  0.75546361    -0.07770
C393        C  0.54609909  0.13645359  0.72782260     0.05760
C394        C  0.51105349  0.12114910  0.69683658    -0.02800
Br395      Br  0.44802724  0.14652890  0.65872709    -0.02490
H396        H  0.49119648  0.07608583  0.66879489     0.09670
H397        H  0.60923834  0.12721361  0.78058637     0.07690
Br398      Br  0.63313011  0.05535351  0.79508327    -0.02920
C399        C  0.50119433  0.44762538  0.74439519    -0.09550
C400        C  0.45120106  0.46175967  0.76231966     0.06640
C401        C  0.44142182  0.99787450  0.76012940    -0.03320
C402        C  0.48617535  0.01765618  0.74547281    -0.07770
C403        C  0.54067947  0.00363959  0.73039441     0.05760
C404        C  0.54536781  0.46756371  0.72905978    -0.02800
Br405      Br  0.60725667  0.44305806  0.70471270    -0.02490
H406        H  0.50607955  0.42064999  0.74121663     0.09670
H407        H  0.47521796  0.04468894  0.74527069     0.07690
Br408      Br  0.37322250  0.02430116  0.77897500    -0.02920
C409        C  0.37486772  0.37683953  0.77055726    -0.09550
C410        C  0.43013347  0.39999165  0.78281689     0.06640
C411        C  0.50208350  0.38517250  0.79397622    -0.03320
C412        C  0.51663108  0.35115267  0.78659433    -0.07770
C413        C  0.46093467  0.33049659  0.76948699     0.05760
C414        C  0.38905514  0.34379991  0.76195789    -0.02800
Br415      Br  0.30590051  0.32003413  0.73732743    -0.02490
H416        H  0.31840145  0.38385271  0.76691331     0.09670
H417        H  0.57202966  0.34083367  0.79422351     0.07690
Br418      Br  0.58439643  0.40925789  0.81843757    -0.02920
C419        C  0.03287894  0.46089059  0.77443250    -0.09550
C420        C  0.03209190  0.46659711  0.73888534     0.06640
C421        C  0.97441498  0.98889741  0.71999389    -0.03320
C422        C  0.93627160  0.01024472  0.73795472    -0.07770
C423        C  0.94397980  0.00820085  0.77453740     0.05760
C424        C  0.98979440  0.48021412  0.79216340    -0.02800
Br425      Br  0.99711535  0.46220176  0.83868823    -0.02490
H426        H  0.06934262  0.44117225  0.78912242     0.09670
H427        H  0.89889966  0.02900461  0.72246374     0.07690
Br428      Br  0.92952365  0.98843316  0.67051946    -0.02920
C429        C  0.99206239  0.39726943  0.71298176    -0.09550
C430        C  0.06376354  0.40672670  0.72915038     0.06640
C431        C  0.10804756  0.38149114  0.75170395    -0.03320
C432        C  0.08695492  0.34801487  0.75202457    -0.07770
C433        C  0.01831272  0.33846913  0.73381633     0.05760
C434        C  0.96946542  0.36386901  0.71492987    -0.02800
Br435      Br  0.87269838  0.35443302  0.68988788    -0.02490
H436        H  0.95383471  0.41589511  0.69746049     0.09670
H437        H  0.12307117  0.32951430  0.76907669     0.07690
Br438      Br  0.18617501  0.38990533  0.79052527    -0.02920
C439        C  0.27894601  0.46242974  0.78455967    -0.09550
C440        C  0.32670013  0.44634655  0.76677090     0.06640
C441        C  0.29403787  0.43645482  0.73201936    -0.03320
C442        C  0.21871079  0.43370034  0.72131102    -0.07770
C443        C  0.16974988  0.44905586  0.73910564     0.05760
C444        C  0.20386051  0.46769262  0.76925796    -0.02800
Br445      Br  0.16147384  0.50475064  0.78935470    -0.02490
H446        H  0.30052128  0.47371483  0.80953987     0.09670
H447        H  0.19833275  0.41993886  0.69768777     0.07690
Br448      Br  0.34684740  0.42019866  0.69910351    -0.02920
C449        C  0.99006939  0.27841027  0.90634366    -0.09550
C450        C  0.06403876  0.28123613  0.92430333     0.06640
C451        C  0.11423179  0.27960503  0.90253019    -0.03320
C452        C  0.09274326  0.26901652  0.86801382    -0.07770
C453        C  0.02054350  0.26283166  0.85208452     0.05760
C454        C  0.96828647  0.26853504  0.87150372    -0.02800
Br455      Br  0.86664671  0.26173896  0.85329949    -0.02490
H456        H  0.94814886  0.28174085  0.92014589     0.09670
H457        H  0.13295392  0.26735172  0.85267488     0.07690
Br458      Br  0.20874293  0.29683125  0.91212160    -0.02920
C459        C  0.42010847  0.23927586  0.61932878    -0.09550
C460        C  0.45479681  0.26177035  0.64415059     0.06640
C461        C  0.46908894  0.29408523  0.63282307    -0.03320
C462        C  0.45039729  0.30303595  0.59701245    -0.07770
C463        C  0.41923491  0.27986767  0.57085062     0.05320
C464        C  0.40354462  0.24733655  0.58344740    -0.02800
Br465      Br  0.36633125  0.21008857  0.55460065    -0.02490
H466        H  0.40772589  0.21454306  0.62793424     0.09670
H467        H  0.45906151  0.32886695  0.59044620     0.07690
Br468      Br  0.50964647  0.32780416  0.66562291    -0.02920
C469        C  0.28895955  0.25972605  0.49290897    -0.09550
C470        C  0.31910627  0.28505481  0.51659182     0.06640
C471        C  0.26791037  0.30568044  0.52899796    -0.03320
C472        C  0.19462427  0.30719665  0.01091640    -0.07770
C473        C  0.16453774  0.28422384  0.98473277     0.05760
C474        C  0.21295052  0.25705396  0.98033510    -0.02800
Br475      Br  0.18136330  0.21630984  0.95634966    -0.02490
H476        H  0.32399931  0.24074294  0.48508258     0.09670
H477        H  0.16214749  0.32804844  0.01709813     0.07690
Br478      Br  0.29261422  0.33813058  0.56556341    -0.02920
C479        C  0.97634815  0.37100919  0.98227106    -0.09550
C480        C  0.02552136  0.39510741  0.97769987     0.06640
C481        C  0.08061945  0.38534019  0.96115648    -0.03320
C482        C  0.09214374  0.35116517  0.95483740    -0.07770
C483        C  0.05160097  0.32561258  0.96546609     0.05760
C484        C  0.98621624  0.33693582  0.97454602    -0.02800
Br485      Br  0.90182262  0.31091756  0.97243537    -0.02490
H486        H  0.92919730  0.37876319  0.99160407     0.09670
H487        H  0.13582363  0.34433673  0.94302445     0.07690
Br488      Br  0.13987171  0.41728596  0.94499010    -0.02920
C489        C  0.99461618  0.53159032  0.88958977    -0.09550
C490        C  0.94114625  0.01972925  0.90514146     0.06640
C491        C  0.86991545  0.01784665  0.88402465    -0.03320
C492        C  0.85593035  0.02447881  0.84797196    -0.07770
C493        C  0.91152514  0.03174700  0.83103782     0.05760
C494        C  0.98084041  0.03804371  0.85352637    -0.02800
Br495      Br  0.06368483  0.55233336  0.83833539    -0.02490
H496        H  0.04892850  0.53490202  0.90548055     0.09670
H497        H  0.80010253  0.02398231  0.83357989     0.07690
Br498      Br  0.78795867  0.00615065  0.90168547    -0.02920
C499        C  0.08256583  0.49033836  0.63363955    -0.09550
C500        C  0.05774638  0.46524216  0.60953386     0.06640
C501        C  0.04780257  0.43278731  0.62174710    -0.03320
C502        C  0.05954761  0.42612290  0.65760334    -0.07770
C503        C  0.07629009  0.45203622  0.68267135     0.05760
C504        C  0.09222054  0.48421768  0.66971664    -0.02800
Br505      Br  0.12209343  0.02222811  0.69871878    -0.02490
H506        H  0.09149695  0.01537584  0.62423612     0.09670
H507        H  0.05664116  0.39996798  0.66514134     0.07690
Br508      Br  0.02038397  0.39626158  0.59023933    -0.02920
C509        C  0.40384630  0.38550516  0.50100631    -0.09550
C510        C  0.47522550  0.39337332  0.51531717     0.06640
C511        C  0.52449174  0.36711798  0.53203181    -0.03320
C512        C  0.49974606  0.33423116  0.53521128    -0.07770
C513        C  0.42552806  0.32629410  0.52276506     0.05760
C514        C  0.37915656  0.35314922  0.50293426    -0.02800
Br515      Br  0.28531075  0.35212757  0.47143934    -0.02490
H516        H  0.36642445  0.40503166  0.48629635     0.09670
H517        H  0.53871302  0.31480030  0.54880609     0.07690
Br518      Br  0.62465747  0.37475536  0.55257651    -0.02920
C519        C  0.50263163  0.49432528  0.61778781    -0.09550
C520        C  0.54657400  0.00998839  0.59914317     0.06640
C521        C  0.59058477  0.03569818  0.61491740    -0.03320
C522        C  0.59718456  0.04200419  0.65018106    -0.07770
C523        C  0.56393010  0.02207333  0.67145553     0.05760
C524        C  0.50653052  0.50209398  0.65264326    -0.02800
Br525      Br  0.41723489  0.49428059  0.66565008    -0.02490
H526        H  0.46097776  0.47792424  0.60426037     0.09670
H527        H  0.62856399  0.06325980  0.66100542     0.07690
Br528      Br  0.63771361  0.06497505  0.58912715    -0.02920
C529        C  0.42225482  0.44356980  0.88501636    -0.09550
C530        C  0.47143322  0.46881885  0.89561651     0.06640
C531        C  0.50434009  0.48339016  0.87122153    -0.03320
C532        C  0.48625825  0.47311449  0.83647267    -0.07770
C533        C  0.43288096  0.44876626  0.82411174     0.05760
C534        C  0.40478985  0.43266541  0.85050458    -0.02800
Br535      Br  0.34861086  0.39329094  0.84466520    -0.02490
H536        H  0.39906471  0.43124891  0.90430070     0.09670
H537        H  0.51705614  0.48415275  0.81988351     0.07690
Br538      Br  0.57195493  0.51863819  0.88375457    -0.02920
C539        C  0.85953804  0.21168470  0.58933337    -0.09550
C540        C  0.91931443  0.20415243  0.57463946     0.06640
C541        C  0.98941339  0.20243380  0.59867321    -0.03320
C542        C  0.99731051  0.21054040  0.63369721    -0.07770
C543        C  0.93769956  0.21972202  0.64711890     0.05760
C544        C  0.86776546  0.21976150  0.62445167    -0.02800
Br545      Br  0.77965374  0.22950723  0.63900125    -0.02490
H546        H  0.80449530  0.21036477  0.57417293     0.09670
H547        H  0.05155711  0.20964039  0.65069389     0.07690
Br548      Br  0.08008141  0.19084069  0.58716574    -0.02920
C549        C  0.01211240  0.23391195  0.96890172    -0.09550
C550        C  0.04242478  0.26320185  0.98527278     0.06640
C551        C  0.03271925  0.26844571  0.51974407    -0.03320
C552        C  0.98756962  0.24789844  0.53352550    -0.07770
C553        C  0.95405420  0.21959233  0.51620731     0.05760
C554        C  0.96470393  0.21429800  0.98192463    -0.02800
Br555      Br  0.92246304  0.18033310  0.94962851    -0.02490
H556        H  0.02351320  0.22600921  0.94463681     0.09670
H557        H  0.97801851  0.25519206  0.55833901     0.07690
Br558      Br  0.06997399  0.30434884  0.55049653    -0.02920
C559        C  0.99758841  0.14740792  0.52468977    -0.09550
C560        C  0.93512196  0.15779028  0.53601517     0.06640
C561        C  0.89687329  0.13159518  0.54830916    -0.03320
C562        C  0.91600444  0.09760784  0.54490609    -0.07770
C563        C  0.97332306  0.08813792  0.53010753     0.05760
C564        C  0.01568237  0.11346649  0.52075883    -0.02800
Br565      Br  0.09553440  0.10458779  0.49958990    -0.02490
H566        H  0.03327897  0.16549367  0.51797948     0.09670
H567        H  0.88426285  0.07829096  0.55315343     0.07690
Br568      Br  0.81398046  0.13842668  0.56766776    -0.02920
C569        C  0.58035691  0.23751327  0.87178297    -0.09550
C570        C  0.55013707  0.21206544  0.84944649     0.06640
C571        C  0.53360076  0.18158810  0.86371900    -0.03320
C572        C  0.54745485  0.17695008  0.90001647    -0.07770
C573        C  0.57594280  0.20274192  0.92364654     0.05760
C574        C  0.59266201  0.23361267  0.90810380    -0.02800
Br575      Br  0.62809010  0.27346746  0.93299499    -0.02490
H576        H  0.59254798  0.26125857  0.86070519     0.09670
H577        H  0.53829113  0.15202367  0.90898596     0.07690
Br578      Br  0.49684497  0.14442365  0.83473406    -0.02920
C579        C  0.50884248  0.24352532  0.53338675    -0.09550
C580        C  0.45215014  0.26501582  0.51274415     0.06640
C581        C  0.44917000  0.26602563  0.97632405    -0.03320
C582        C  0.49349153  0.24436425  0.96194358    -0.07770
C583        C  0.54735094  0.22184128  0.98228095     0.05760
C584        C  0.55398024  0.22199399  0.51902961    -0.02800
Br585      Br  0.62340347  0.19402970  0.55267936    -0.02490
H586        H  0.52083834  0.24338077  0.56156069     0.09670
H587        H  0.48321242  0.24516921  0.93382297     0.07690
Br588      Br  0.39156636  0.29734687  0.94273250    -0.02920
C589        C  0.62705911  0.13678446  0.99439022    -0.09550
C590        C  0.57297047  0.16000118  0.97481527     0.06640
C591        C  0.50126326  0.14764168  0.96501433    -0.03320
C592        C  0.48988805  0.11302557  0.96932326    -0.07770
C593        C  0.54791054  0.08962177  0.98298940     0.05760
C594        C  0.61746548  0.10211731  0.99568523    -0.02800
Br595      Br  0.70424229  0.07406806  0.01389786    -0.02490
H596        H  0.67943829  0.14475113  0.00819218     0.09670
H597        H  0.43533642  0.10419169  0.96067896     0.07690
Br598      Br  0.41574871  0.17487669  0.94302528    -0.02920
C599        C  0.79893282  0.17581146  0.98814686    -0.09550
C600        C  0.82838516  0.20061101  0.51234483     0.06640
C601        C  0.78208616  0.22983656  0.51264246    -0.03320
C602        C  0.70681788  0.22823894  0.49855648    -0.07770
C603        C  0.67688476  0.20128389  0.97722559     0.05760
C604        C  0.72810446  0.17840151  0.96766690    -0.02800
Br605      Br  0.70608765  0.14523511  0.93163985    -0.02490
H606        H  0.83100535  0.15379189  0.98411691     0.09670
H607        H  0.67226748  0.24888980  0.50382436     0.07690
Br608      Br  0.81463789  0.27186621  0.53371123    -0.02920
C609        C  0.59287695  0.69668426  0.46454644    -0.02890
C610        C  0.90899139  0.69597086  0.03472216    -0.02890
O611        O  0.55205969  0.97574512  0.45170497    -0.72180
O612        O  0.58774085  0.99402338  0.04890859    -0.72400
O613        O  0.55549234  0.93833014  0.01018723    -0.72250
O614        O  0.58513065  0.53075180  0.49107832    -0.72260
O615        O  0.47069652  0.54354861  0.48494480    -0.72220
O616        O  0.44117694  0.95167486  0.00406045    -0.72240
O617        O  0.47246119  0.50627255  0.04225874    -0.72180
O618        O  0.43716315  0.98810147  0.44602582    -0.72370
V619        V  0.56802008  0.98498096  0.00027774     1.35240
V620        V  0.45771107  0.99714756  0.49434842     1.35170
C621        C  0.48803976  0.97844363  0.43250949     0.77060
C622        C  0.53558911  0.50325301  0.06190176     0.77120
C623        C  0.49253081  0.92923518  0.01030958     0.76990
C624        C  0.53393056  0.55310997  0.48607993     0.76950
O625        O  0.91613143  0.00105439  0.45919148    -0.72180
O626        O  0.97272745  0.97255434  0.05466537    -0.72400
O627        O  0.93317769  0.53208243  0.02019669    -0.72250
O628        O  0.95601580  0.94143876  0.49309500    -0.72260
O629        O  0.06960624  0.94926479  0.49583516    -0.72220
O630        O  0.04461855  0.54062633  0.01901720    -0.72240
O631        O  0.08494656  0.98300935  0.05618722    -0.72180
O632        O  0.02881047  0.50755117  0.45930365    -0.72370
V633        V  0.94672545  0.98687541  0.50690579     1.35240
V634        V  0.05492468  0.99483277  0.00761815     1.35170
C635        C  0.96258391  0.00914233  0.44278128     0.77060
C636        C  0.03797629  0.97381110  0.07187849     0.77120
C637        C  0.98450632  0.55210986  0.02308985     0.76990
C638        C  0.01663760  0.93007416  0.48920855     0.76950
C639        C  0.40323190  0.78913056  0.03032529    -0.02890
C640        C  0.08131868  0.78810578  0.46501006    -0.02890
C641        C  0.08566792  0.94418795  0.22288505    -0.02890
C642        C  0.41038788  0.93920119  0.28417720    -0.02890
O643        O  0.47123652  0.71532529  0.29244428    -0.72180
O644        O  0.42512312  0.74149328  0.19606095    -0.72400
O645        O  0.46749000  0.68312744  0.23285251    -0.72250
O646        O  0.42959913  0.77344547  0.25619049    -0.72260
O647        O  0.54070144  0.78571176  0.25827905    -0.72220
O648        O  0.58166334  0.69336659  0.23982587    -0.72240
O649        O  0.53856116  0.75114270  0.19986807    -0.72180
O650        O  0.58283314  0.72918016  0.29743654    -0.72370
V651        V  0.45059610  0.72859119  0.24440232     1.35240
V652        V  0.55891444  0.73949104  0.24861832     1.35170
C653        C  0.53435117  0.71864912  0.31146761     0.77060
C654        C  0.47372318  0.75112425  0.18160228     0.77120
C655        C  0.53137602  0.67254170  0.23351735     0.76990
C656        C  0.47791896  0.79513609  0.26094909     0.76950
O657        O  0.93927726  0.75670075  0.29542046    -0.72180
O658        O  0.90098425  0.73762067  0.19859925    -0.72400
O659        O  0.90394361  0.70087795  0.25698956    -0.72250
O660        O  0.93698587  0.79333654  0.23695736    -0.72260
O661        O  0.05130734  0.77961080  0.24370902    -0.72220
O662        O  0.01770550  0.68759372  0.26135829    -0.72240
O663        O  0.01529699  0.72518530  0.20411232    -0.72180
O664        O  0.05285705  0.74226929  0.30103295    -0.72370
V665        V  0.92236406  0.74683591  0.24708662     1.35240
V666        V  0.03198906  0.73394432  0.25244211     1.35170
C667        C  0.00289613  0.75314781  0.31475728     0.77060
C668        C  0.95148861  0.72794157  0.18477288     0.77120
C669        C  0.95511930  0.67829997  0.26184108     0.76990
C670        C  0.00059725  0.80232690  0.23764334     0.76950
C671        C  0.58555935  0.52726503  0.21216553    -0.02890
C672        C  0.89651785  0.53484965  0.29020974    -0.02890
C673        C  0.70189595  0.49797377  0.25601267    -0.09550
C674        C  0.67045843  0.52018036  0.22717413     0.06640
C675        C  0.72130968  0.53970766  0.21575935    -0.03320
C676        C  0.78164304  0.55013702  0.24049905    -0.07770
C677        C  0.81527056  0.52876825  0.26980423     0.05760
C678        C  0.77576531  0.49936898  0.27385896    -0.02800
Br679      Br  0.81527781  0.45986218  0.30205509    -0.02490
H680        H  0.67036556  0.47981266  0.26578284     0.09670
H681        H  0.81158845  0.56957555  0.23139627     0.07690
Br682      Br  0.75528884  0.52303185  0.17662909    -0.02920
C683        C  0.96896223  0.58122861  0.26608602    -0.09550
C684        C  0.91382040  0.57289870  0.28310914     0.06640
C685        C  0.87376377  0.60105437  0.29295195    -0.03320
C686        C  0.88788143  0.63453044  0.28535088    -0.07770
C687        C  0.94217735  0.64206160  0.26844684     0.05760
C688        C  0.98291898  0.61485808  0.25871059    -0.02800
Br689      Br  0.05656278  0.62144208  0.23366638    -0.02490
H690        H  0.00421923  0.56187458  0.25917025     0.09670
H691        H  0.85623575  0.65509542  0.29319068     0.07690
Br692      Br  0.79670181  0.59749497  0.31620668    -0.02920
C693        C  0.52179630  0.58645936  0.19283811    -0.09550
C694        C  0.56905047  0.56558865  0.21909053     0.06640
C695        C  0.59615428  0.58083580  0.25205636    -0.03320
C696        C  0.58744149  0.61601797  0.25546956    -0.07770
C697        C  0.54612300  0.63644823  0.22782390     0.05760
C698        C  0.51110316  0.62114892  0.19683059    -0.02800
Br699      Br  0.44813507  0.64653806  0.15871006    -0.02490
H700        H  0.49124390  0.57609005  0.16878344     0.09670
H701        H  0.60921144  0.62720039  0.28059568     0.07690
Br702      Br  0.63308378  0.55533934  0.29508810    -0.02920
C703        C  0.50118403  0.94761798  0.24439575    -0.09550
C704        C  0.45119347  0.96175216  0.26232167     0.06640
C705        C  0.44140988  0.49786698  0.26013035    -0.03320
C706        C  0.48615793  0.51764900  0.24547034    -0.07770
C707        C  0.54066240  0.50363213  0.23039279     0.05760
C708        C  0.54535435  0.96755644  0.22905896    -0.02800
Br709      Br  0.60724580  0.94305168  0.20471291    -0.02490
H710        H  0.50607061  0.92064257  0.24121771     0.09670
H711        H  0.47519875  0.54468187  0.24526551     0.07690
Br712      Br  0.37321466  0.52429323  0.27897883    -0.02920
C713        C  0.37486569  0.87683057  0.27056193    -0.09550
C714        C  0.43013070  0.89998357  0.28282002     0.06640
C715        C  0.50208164  0.88516539  0.29397835    -0.03320
C716        C  0.51663064  0.85114570  0.28659672    -0.07770
C717        C  0.46093483  0.83048833  0.26949133     0.05760
C718        C  0.38905421  0.84379034  0.26196430    -0.02800
Br719      Br  0.30589874  0.82002146  0.23734012    -0.02490
H720        H  0.31839920  0.88384336  0.26691869     0.09670
H721        H  0.57203018  0.84082779  0.29422455     0.07690
Br722      Br  0.58439440  0.90925221  0.31843745    -0.02920
C723        C  0.03286936  0.96088358  0.27443341    -0.09550
C724        C  0.03208798  0.96659075  0.23888692     0.06640
C725        C  0.97441215  0.48889198  0.21999395    -0.03320
C726        C  0.93626513  0.51023861  0.23795360    -0.07770
C727        C  0.94396734  0.50819421  0.27453584     0.05760
C728        C  0.98978263  0.98020744  0.29216316    -0.02800
Br729      Br  0.99710031  0.96219662  0.33868812    -0.02490
H730        H  0.06933082  0.94116480  0.28912387     0.09670
H731        H  0.89889742  0.52899933  0.22246172     0.07690
Br732      Br  0.92953095  0.48843115  0.17051820    -0.02920
C733        C  0.99205920  0.89726340  0.21297965    -0.09550
C734        C  0.06375914  0.90672032  0.22915095     0.06640
C735        C  0.10803889  0.88148482  0.25170683    -0.03320
C736        C  0.08694376  0.84800898  0.25202779    -0.07770
C737        C  0.01830314  0.83846362  0.23381726     0.05760
C738        C  0.96945994  0.86386333  0.21492771    -0.02800
Br739      Br  0.87269619  0.85442720  0.18988122    -0.02490
H740        H  0.95383427  0.91588913  0.19745667     0.09670
H741        H  0.12305653  0.82950844  0.26908164     0.07690
Br742      Br  0.18616408  0.88989840  0.29052984    -0.02920
C743        C  0.27894297  0.96242071  0.28456398    -0.09550
C744        C  0.32669632  0.94633759  0.26677485     0.06640
C745        C  0.29403398  0.93644556  0.23202355    -0.03320
C746        C  0.21870734  0.93369113  0.22131560    -0.07770
C747        C  0.16974698  0.94904766  0.23910985     0.05760
C748        C  0.20385764  0.96768370  0.26926265    -0.02800
Br749      Br  0.16147062  0.00473926  0.28936248    -0.02490
H750        H  0.30051871  0.97370558  0.30954425     0.09670
H751        H  0.19832895  0.91992952  0.19769246     0.07690
Br752      Br  0.34684242  0.92019046  0.19910679    -0.02920
C753        C  0.99006283  0.77840177  0.40634428    -0.09550
C754        C  0.06403330  0.78122714  0.42430265     0.06640
C755        C  0.11422410  0.77959520  0.40252847    -0.03320
C756        C  0.09273209  0.76900692  0.36801214    -0.07770
C757        C  0.02053107  0.76282304  0.35208394     0.05760
C758        C  0.96827653  0.76852685  0.37150436    -0.02800
Br759      Br  0.86663588  0.76173190  0.35330165    -0.02490
H760        H  0.94814403  0.78173277  0.42014749     0.09670
H761        H  0.13294109  0.76734169  0.35267232     0.07690
Br762      Br  0.20873636  0.79682035  0.41211842    -0.02920
C763        C  0.42010829  0.73927767  0.11933034    -0.09550
C764        C  0.45480279  0.76176954  0.14415344     0.06640
C765        C  0.46909729  0.79408483  0.13282767    -0.03320
C766        C  0.45040295  0.80303813  0.09701749    -0.07770
C767        C  0.41923683  0.77987184  0.07085434     0.05320
C768        C  0.40354417  0.74734039  0.08344939    -0.02800
Br769      Br  0.36632762  0.71009415  0.05460074    -0.02490
H770        H  0.40772110  0.71454517  0.12793431     0.09670
H771        H  0.45906934  0.82886924  0.09045258     0.07690
Br772      Br  0.50966092  0.82780108  0.16562945    -0.02920
C773        C  0.28896124  0.75973363  0.99291099    -0.09550
C774        C  0.31910757  0.78506109  0.01659558     0.06640
C775        C  0.26791134  0.80568551  0.02900276    -0.03320
C776        C  0.19462365  0.80719080  0.51091258    -0.07770
C777        C  0.16453636  0.78421640  0.48473080     0.05760
C778        C  0.21294921  0.75704616  0.48033404    -0.02800
Br779      Br  0.18136149  0.71630121  0.45635041    -0.02490
H780        H  0.32400101  0.74075109  0.98508380     0.09670
H781        H  0.16214658  0.82804261  0.51709411     0.07690
Br782      Br  0.29261588  0.83813364  0.06557013    -0.02920
C783        C  0.97634596  0.87100138  0.48226945    -0.09550
C784        C  0.02551716  0.89509970  0.47769596     0.06640
C785        C  0.08061424  0.88533188  0.46115214    -0.03320
C786        C  0.09213912  0.85115660  0.45483433    -0.07770
C787        C  0.05159815  0.82560421  0.46546487     0.05760
C788        C  0.98621480  0.83692760  0.47454601    -0.02800
Br789      Br  0.90182330  0.81090882  0.47243897    -0.02490
H790        H  0.92919619  0.87875560  0.49160322     0.09670
H791        H  0.13581894  0.84432783  0.44302134     0.07690
Br792      Br  0.13986517  0.91727702  0.44498396    -0.02920
C793        C  0.99461011  0.03158623  0.38958601    -0.09550
C794        C  0.94113800  0.51972713  0.40513848     0.06640
C795        C  0.86990405  0.51785000  0.38402382    -0.03320
C796        C  0.85591662  0.52448180  0.34797113    -0.07770
C797        C  0.91151126  0.53174445  0.33103505     0.05760
C798        C  0.98082855  0.53804020  0.35352203    -0.02800
Br799      Br  0.06367269  0.05232963  0.33832952    -0.02490
H800        H  0.04892459  0.03489538  0.40547557     0.09670
H801        H  0.80008728  0.52398851  0.33358052     0.07690
Br802      Br  0.78794545  0.50616312  0.40168763    -0.02920
C803        C  0.08257530  0.99033827  0.13364635    -0.09550
C804        C  0.05775108  0.96524487  0.10953811     0.06640
C805        C  0.04780443  0.93278909  0.12174840    -0.03320
C806        C  0.05954863  0.92612147  0.15760416    -0.07770
C807        C  0.07629335  0.95203244  0.18267455     0.05760
C808        C  0.09222938  0.98421443  0.16972294    -0.02800
Br809      Br  0.12210270  0.52222262  0.19872818    -0.02490
H810        H  0.09150742  0.51537662  0.12424502     0.09670
H811        H  0.05663873  0.89996619  0.16513995     0.07690
Br812      Br  0.02038275  0.89626640  0.09023710    -0.02920
C813        C  0.40384864  0.88551105  0.00100865    -0.09550
C814        C  0.47522888  0.89337873  0.01531694     0.06640
C815        C  0.52449435  0.86712389  0.03203339    -0.03320
C816        C  0.49974752  0.83423767  0.03521560    -0.07770
C817        C  0.42552912  0.82630073  0.02277027     0.05760
C818        C  0.37915744  0.85315588  0.00293951    -0.02800
Br819      Br  0.28530948  0.85213537  0.97144673    -0.02490
H820        H  0.36642681  0.90503736  0.98629828     0.09670
H821        H  0.53871441  0.81480696  0.04881080     0.07690
Br822      Br  0.62466049  0.87476151  0.05257675    -0.02920
C823        C  0.50261086  0.99433238  0.11778246    -0.09550
C824        C  0.54657497  0.50998442  0.09914282     0.06640
C825        C  0.59062204  0.53567891  0.11492423    -0.03320
C826        C  0.59721187  0.54198645  0.15018654    -0.07770
C827        C  0.56392794  0.52206476  0.17145658     0.05760
C828        C  0.50651582  0.00209595  0.15263987    -0.02800
Br829      Br  0.41722113  0.99428329  0.16564826    -0.02490
H830        H  0.46094033  0.97794165  0.10425060     0.09670
H831        H  0.62861145  0.56323522  0.16101323     0.07690
Br832      Br  0.63782916  0.56493114  0.08914668    -0.02920
C833        C  0.42225505  0.94356075  0.38501983    -0.09550
C834        C  0.47143275  0.96881014  0.39561956     0.06640
C835        C  0.50433714  0.98338226  0.37122404    -0.03320
C836        C  0.48625390  0.97310694  0.33647504    -0.07770
C837        C  0.43287780  0.94875812  0.32411471     0.05760
C838        C  0.40478825  0.93265681  0.35050789    -0.02800
Br839      Br  0.34860525  0.89328355  0.34466819    -0.02490
H840        H  0.39906592  0.93123970  0.40430443     0.09670
H841        H  0.51704900  0.98414617  0.31988511     0.07690
Br842      Br  0.57194969  0.01863122  0.38375659    -0.02920
C843        C  0.85952670  0.71169202  0.08932854    -0.09550
C844        C  0.91930472  0.70416060  0.07463539     0.06640
C845        C  0.98940255  0.70244140  0.09867003    -0.03320
C846        C  0.99729689  0.71054523  0.13369449    -0.07770
C847        C  0.93768430  0.71972476  0.14711582     0.05760
C848        C  0.86775148  0.71976609  0.12444738    -0.02800
Br849      Br  0.77963830  0.72951038  0.13899615    -0.02490
H850        H  0.80448452  0.71037285  0.07416728     0.09670
H851        H  0.05154277  0.70964450  0.15069191     0.07690
Br852      Br  0.08007283  0.69085059  0.08716371    -0.02920
C853        C  0.01211152  0.73390349  0.46890270    -0.09550
C854        C  0.04242514  0.76319342  0.48527317     0.06640
C855        C  0.03271551  0.76845421  0.01974329    -0.03320
C856        C  0.98756353  0.74790710  0.03352331    -0.07770
C857        C  0.95404971  0.71960095  0.01620454     0.05760
C858        C  0.96470471  0.71428960  0.48192681    -0.02800
Br859      Br  0.92246051  0.68032507  0.44963097    -0.02490
H860        H  0.02350989  0.72600069  0.44463729     0.09670
H861        H  0.97800975  0.75520062  0.05833635     0.07690
Br862      Br  0.06996777  0.80435705  0.05049672    -0.02920
C863        C  0.99758372  0.64741624  0.02468839    -0.09550
C864        C  0.93511429  0.65779882  0.03601125     0.06640
C865        C  0.89686396  0.63160387  0.04830438    -0.03320
C866        C  0.91599768  0.59761644  0.04490354    -0.07770
C867        C  0.97332094  0.58814605  0.03010833     0.05760
C868        C  0.01568132  0.61347461  0.02076037    -0.02800
Br869      Br  0.09554198  0.60459551  0.99959745    -0.02490
H870        H  0.03327500  0.66550195  0.01797867     0.09670
H871        H  0.88425490  0.57829976  0.05315033     0.07690
Br872      Br  0.81396744  0.63843546  0.06766019    -0.02920
C873        C  0.58037033  0.73750485  0.37178502    -0.09550
C874        C  0.55015126  0.71205705  0.34944824     0.06640
C875        C  0.53361481  0.68157960  0.36372052    -0.03320
C876        C  0.54746746  0.67694158  0.40001793    -0.07770
C877        C  0.57595304  0.70273365  0.42364822     0.05760
C878        C  0.59267345  0.73360429  0.40810581    -0.02800
Br879      Br  0.62810008  0.77345902  0.43299743    -0.02490
H880        H  0.59256172  0.76125022  0.36070750     0.09670
H881        H  0.53830394  0.65201508  0.40898727     0.07690
Br882      Br  0.49685961  0.64441514  0.33473546    -0.02920
C883        C  0.50884213  0.74353118  0.03338829    -0.09550
C884        C  0.45215058  0.76502293  0.01274693     0.06640
C885        C  0.44917090  0.76601714  0.47632164    -0.03320
C886        C  0.49349599  0.74435627  0.46194261    -0.07770
C887        C  0.54735548  0.72183413  0.48228123     0.05760
C888        C  0.55397817  0.72200021  0.01902976    -0.02800
Br889      Br  0.62340275  0.69403492  0.05267775    -0.02490
H890        H  0.52083879  0.74338542  0.06156228     0.09670
H891        H  0.48321877  0.74516044  0.43382204     0.07690
Br892      Br  0.39156223  0.79733513  0.44272818    -0.02920
C893        C  0.62705876  0.63677746  0.49439420    -0.09550
C894        C  0.57297313  0.65999405  0.47481666     0.06640
C895        C  0.50126576  0.64763505  0.46501292    -0.03320
C896        C  0.48988885  0.61301916  0.46932116    -0.07770
C897        C  0.54790959  0.58961536  0.48298980     0.05760
C898        C  0.61746383  0.60211048  0.49568921    -0.02800
Br899      Br  0.70423764  0.57406079  0.51390850    -0.02490
H900        H  0.67943677  0.64474411  0.50819812     0.09670
H901        H  0.43533758  0.60418540  0.46067443     0.07690
Br902      Br  0.41575373  0.67487010  0.44302026    -0.02920
C903        C  0.79893821  0.67580132  0.48815282    -0.09550
C904        C  0.82837935  0.70062048  0.01233983     0.06640
C905        C  0.78208031  0.72984583  0.01263821    -0.03320
C906        C  0.70681181  0.72824767  0.99855343    -0.07770
C907        C  0.67689077  0.70127499  0.47722903     0.05760
C908        C  0.72811047  0.67839124  0.46767227    -0.02800
Br909      Br  0.70609466  0.64522336  0.43164660    -0.02490
H910        H  0.83101066  0.65378157  0.48412327     0.09670
H911        H  0.67226136  0.74889801  0.00382236     0.07690
Br912      Br  0.81463218  0.77187531  0.03370740    -0.02920
C913        C  0.59287081  0.69669204  0.96454483    -0.02890
C914        C  0.90899837  0.69596216  0.53472632    -0.02890
O915        O  0.55206111  0.97575326  0.95170190    -0.72180
O916        O  0.58773839  0.99402187  0.54891046    -0.72400
O917        O  0.55549045  0.93832543  0.51019191    -0.72250
O918        O  0.58513288  0.53075791  0.99107853    -0.72260
O919        O  0.47069847  0.54355414  0.98494447    -0.72220
O920        O  0.44117430  0.95166980  0.50406316    -0.72240
O921        O  0.47245780  0.50626982  0.54226002    -0.72180
O922        O  0.43716441  0.98810830  0.94602382    -0.72370
V923        V  0.56801807  0.98497568  0.50028022     1.35240
V924        V  0.45771334  0.99715274  0.99434679     1.35170
C925        C  0.48804085  0.97845172  0.93250681     0.77060
C926        C  0.53558621  0.50325320  0.56190284     0.77120
C927        C  0.49252830  0.92923016  0.51031253     0.76990
C928        C  0.53393230  0.55311597  0.98607995     0.76950
O929        O  0.91613553  0.00106106  0.95919535    -0.72180
O930        O  0.97272423  0.97254759  0.55466104    -0.72400
O931        O  0.93317538  0.53207536  0.52019276    -0.72250
O932        O  0.95602008  0.94144598  0.99309931    -0.72260
O933        O  0.06961116  0.94927201  0.99584105    -0.72220
O934        O  0.04461683  0.54061854  0.51901365    -0.72240
O935        O  0.08494367  0.98300136  0.55618214    -0.72180
O936        O  0.02881516  0.50755695  0.95930814    -0.72370
V937        V  0.94672895  0.98688249  0.00691003     1.35240
V938        V  0.05492112  0.99482538  0.50761335     1.35170
C939        C  0.96258893  0.00914730  0.94278495     0.77060
C940        C  0.03797303  0.97380475  0.57187392     0.77120
C941        C  0.98450515  0.55210223  0.52308676     0.76990
C942        C  0.01664239  0.93008150  0.98921347     0.76950
C943        C  0.40323083  0.78912442  0.53032130    -0.02890
C944        C  0.08132125  0.78811416  0.96501103    -0.02890
C945        C  0.08567079  0.94419416  0.72288281    -0.02890
C946        C  0.41039250  0.93920950  0.78417426    -0.02890
O947        O  0.47122199  0.71533445  0.79244267    -0.72180
O948        O  0.42511194  0.74150104  0.69605914    -0.72400
O949        O  0.46746968  0.68313536  0.73285092    -0.72250
O950        O  0.42959324  0.77345480  0.75618837    -0.72260
O951        O  0.54069698  0.78571770  0.75827558    -0.72220
O952        O  0.58164510  0.69337053  0.73982517    -0.72240
O953        O  0.53855222  0.75114549  0.69986590    -0.72180
O954        O  0.58282036  0.72918653  0.79743481    -0.72370
V955        V  0.45058310  0.72859974  0.74440059     1.35240
V956        V  0.55890332  0.73949590  0.74861637     1.35170
C957        C  0.53433710  0.71865718  0.81146595     0.77060
C958        C  0.47371425  0.75112828  0.68160007     0.77120
C959        C  0.53135423  0.67254750  0.73351570     0.76990
C960        C  0.47791580  0.79514403  0.76094580     0.76950
O961        O  0.93929350  0.75670685  0.79542119    -0.72180
O962        O  0.90100212  0.73762235  0.69860145    -0.72400
O963        O  0.90396568  0.70088220  0.75699351    -0.72250
O964        O  0.93699934  0.79334057  0.73695689    -0.72260
O965        O  0.05132151  0.77961664  0.74370836    -0.72220
O966        O  0.01772870  0.68759968  0.76136280    -0.72240
O967        O  0.01531536  0.72518840  0.70411441    -0.72180
O968        O  0.05287466  0.74227777  0.80103448    -0.72370
V969        V  0.92238161  0.74683999  0.74708813     1.35240
V970        V  0.03200752  0.73395018  0.75244393     1.35170
C971        C  0.00291218  0.75315559  0.81475826     0.77060
C972        C  0.95150624  0.72794248  0.68477533     0.77120
C973        C  0.95514346  0.67830523  0.76184635     0.76990
C974        C  0.00060988  0.80233197  0.73764263     0.76950
C975        C  0.58556885  0.52727430  0.71216377    -0.02890
C976        C  0.89653332  0.53485668  0.79021258    -0.02890
C977        C  0.70191524  0.49798292  0.75600066    -0.09550
C978        C  0.67047243  0.52019489  0.72716746     0.06640
C979        C  0.72131660  0.53973791  0.71576294    -0.03320
C980        C  0.78165439  0.55015831  0.74050699    -0.07770
C981        C  0.81528416  0.52878063  0.76980477     0.05760
C982        C  0.77578221  0.49937816  0.77384918    -0.02800
Br983      Br  0.81529740  0.45986638  0.80203655    -0.02490
H984        H  0.67038983  0.47981685  0.76576661     0.09670
H985        H  0.81160081  0.56960048  0.73141080     0.07690
Br986      Br  0.75528689  0.52311470  0.67660977    -0.02920
C987        C  0.96898147  0.58123419  0.76608944    -0.09550
C988        C  0.91384525  0.57290513  0.78311651     0.06640
C989        C  0.87380000  0.60106122  0.79296611    -0.03320
C990        C  0.88791829  0.63453699  0.78536482    -0.07770
C991        C  0.94220457  0.64206729  0.76845447     0.05760
C992        C  0.98293891  0.61486352  0.75871389    -0.02800
Br993      Br  0.05657057  0.62144749  0.73366240    -0.02490
H994        H  0.00423149  0.56187959  0.75916932     0.09670
H995        H  0.85628027  0.65510243  0.79320894     0.07690
Br996      Br  0.79675313  0.59750280  0.81623082    -0.02920
C997        C  0.52176040  0.58646050  0.69284393    -0.09550
C998        C  0.56905058  0.56559655  0.71908938     0.06640
C999        C  0.59617151  0.58084674  0.75205171    -0.03320
C1000       C  0.58745026  0.61602842  0.75546340    -0.07770
C1001       C  0.54609764  0.63645367  0.72782260     0.05760
C1002       C  0.51105082  0.62114906  0.69683685    -0.02800
Br1003     Br  0.44802260  0.64652865  0.65872780    -0.02490
H1004       H  0.49119336  0.57608568  0.66879532     0.09670
H1005       H  0.60923878  0.62721384  0.78058605     0.07690
Br1006     Br  0.63313068  0.55535372  0.79508301    -0.02920
C1007       C  0.50119521  0.94762538  0.74439553    -0.09550
C1008       C  0.45120170  0.96175976  0.76231981     0.06640
C1009       C  0.44142138  0.49787442  0.76012948    -0.03320
C1010       C  0.48617488  0.51765616  0.74547295    -0.07770
C1011       C  0.54067868  0.50363966  0.73039428     0.05760
C1012       C  0.54536877  0.96756364  0.72906011    -0.02800
Br1013     Br  0.60725804  0.94305789  0.70471334    -0.02490
H1014       H  0.50608055  0.92064998  0.74121710     0.09670
H1015       H  0.47521770  0.54468891  0.74527109     0.07690
Br1016     Br  0.37322245  0.52430101  0.77897540    -0.02920
C1017       C  0.37486826  0.87683974  0.77055720    -0.09550
C1018       C  0.43013396  0.89999181  0.78281709     0.06640
C1019       C  0.50208393  0.88517262  0.79397662    -0.03320
C1020       C  0.51663156  0.85115279  0.78659472    -0.07770
C1021       C  0.46093524  0.83049682  0.76948706     0.05760
C1022       C  0.38905577  0.84380021  0.76195764    -0.02800
Br1023     Br  0.30590145  0.82003473  0.73732631    -0.02490
H1024       H  0.31840197  0.88385290  0.76691312     0.09670
H1025       H  0.57203006  0.84083371  0.79422412     0.07690
Br1026     Br  0.58439665  0.90925797  0.81843827    -0.02920
C1027       C  0.03287956  0.96089050  0.77443275    -0.09550
C1028       C  0.03209258  0.96659704  0.73888560     0.06640
C1029       C  0.97441408  0.48889738  0.71999362    -0.03320
C1030       C  0.93627056  0.51024464  0.73795444    -0.07770
C1031       C  0.94397892  0.50820082  0.77453712     0.05760
C1032       C  0.98979513  0.98021411  0.79216367    -0.02800
Br1033     Br  0.99711615  0.96220185  0.83868853    -0.02490
H1034       H  0.06934314  0.94117211  0.78912266     0.09670
H1035       H  0.89889836  0.52900445  0.72246346     0.07690
Br1036     Br  0.92952262  0.48843301  0.67051921    -0.02920
C1037       C  0.99206290  0.89726940  0.71298214    -0.09550
C1038       C  0.06376417  0.90672661  0.72915062     0.06640
C1039       C  0.10804832  0.88149098  0.75170402    -0.03320
C1040       C  0.08695563  0.84801472  0.75202461    -0.07770
C1041       C  0.01831325  0.83846905  0.73381653     0.05760
C1042       C  0.96946585  0.86386899  0.71493025    -0.02800
Br1043     Br  0.87269851  0.85443315  0.68988857    -0.02490
H1044       H  0.95383514  0.91589513  0.69746099     0.09670
H1045       H  0.12307200  0.82951409  0.76907659     0.07690
Br1046     Br  0.18617614  0.88990506  0.79052520    -0.02920
C1047       C  0.27894653  0.96242982  0.78455985    -0.09550
C1048       C  0.32670067  0.94634672  0.76677104     0.06640
C1049       C  0.29403845  0.93645505  0.73201948    -0.03320
C1050       C  0.21871141  0.93370043  0.72131118    -0.07770
C1051       C  0.16975047  0.94905583  0.73910586     0.05760
C1052       C  0.20386102  0.96769260  0.76925818    -0.02800
Br1053     Br  0.16147430  0.00475062  0.78935490    -0.02490
H1054       H  0.30052178  0.97371494  0.80954003     0.09670
H1055       H  0.19833343  0.91993896  0.69768791     0.07690
Br1056     Br  0.34684803  0.92019904  0.69910359    -0.02920
C1057       C  0.99006978  0.77841029  0.90634381    -0.09550
C1058       C  0.06403915  0.78123613  0.92430349     0.06640
C1059       C  0.11423220  0.77960500  0.90253036    -0.03320
C1060       C  0.09274367  0.76901646  0.86801399    -0.07770
C1061       C  0.02054391  0.76283160  0.85208469     0.05760
C1062       C  0.96828688  0.76853501  0.87150389    -0.02800
Br1063     Br  0.86664712  0.76173891  0.85329967    -0.02490
H1064       H  0.94814924  0.78174090  0.92014603     0.09670
H1065       H  0.13295434  0.76735164  0.85267506     0.07690
Br1066     Br  0.20874334  0.79683124  0.91212179    -0.02920
C1067       C  0.42010861  0.73927596  0.61932890    -0.09550
C1068       C  0.45479675  0.76177051  0.64415070     0.06640
C1069       C  0.46908883  0.79408538  0.63282318    -0.03320
C1070       C  0.45039733  0.80303606  0.59701255    -0.07770
C1071       C  0.41923507  0.77986775  0.57085073     0.05320
C1072       C  0.40354480  0.74733663  0.58344752    -0.02800
Br1073     Br  0.36633150  0.71008863  0.55460079    -0.02490
H1074       H  0.40772618  0.71454314  0.62793437     0.09670
H1075       H  0.45906155  0.82886706  0.59044628     0.07690
Br1076     Br  0.50964615  0.82780436  0.66562301    -0.02920
C1077       C  0.28895980  0.75972609  0.49290908    -0.09550
C1078       C  0.31910650  0.78505488  0.51659189     0.06640
C1079       C  0.26791060  0.80568054  0.52899800    -0.03320
C1080       C  0.19462456  0.80719670  0.01091659    -0.07770
C1081       C  0.16453806  0.78422387  0.98473297     0.05760
C1082       C  0.21295088  0.75705401  0.98033530    -0.02800
Br1083     Br  0.18136370  0.71630986  0.95634990    -0.02490
H1084       H  0.32399956  0.74074297  0.48508272     0.09670
H1085       H  0.16214773  0.82804848  0.01709831     0.07690
Br1086     Br  0.29261443  0.83813076  0.56556338    -0.02920
C1087       C  0.97634870  0.87100928  0.98227116    -0.09550
C1088       C  0.02552196  0.89510748  0.97769994     0.06640
C1089       C  0.08061998  0.88534021  0.96115653    -0.03320
C1090       C  0.09214419  0.85116517  0.95483749    -0.07770
C1091       C  0.05160138  0.82561261  0.96546621     0.05760
C1092       C  0.98621670  0.83693590  0.97454615    -0.02800
Br1093     Br  0.90182300  0.81091769  0.97243550    -0.02490
H1094       H  0.92919788  0.87876332  0.99160418     0.09670
H1095       H  0.13582407  0.84433669  0.94302455     0.07690
Br1096     Br  0.13987219  0.91728594  0.94499007    -0.02920
C1097       C  0.99461719  0.03159047  0.88958998    -0.09550
C1098       C  0.94114534  0.51972892  0.90514120     0.06640
C1099       C  0.86991466  0.51784605  0.88402432    -0.03320
C1100       C  0.85592954  0.52447833  0.84797165    -0.07770
C1101       C  0.91152427  0.53174680  0.83103756     0.05760
C1102       C  0.98083946  0.53804357  0.85352616    -0.02800
Br1103     Br  0.06368575  0.05233342  0.83833554    -0.02490
H1104       H  0.04892959  0.03490203  0.90548073     0.09670
H1105       H  0.80010177  0.52398168  0.83357954     0.07690
Br1106     Br  0.78795811  0.50614943  0.90168503    -0.02920
C1107       C  0.08256664  0.99033820  0.63363978    -0.09550
C1108       C  0.05774690  0.96524205  0.60953409     0.06640
C1109       C  0.04780283  0.93278723  0.62174733    -0.03320
C1110       C  0.05954790  0.92612282  0.65760356    -0.07770
C1111       C  0.07629066  0.95203612  0.68267158     0.05760
C1112       C  0.09222135  0.98421754  0.66971687    -0.02800
Br1113     Br  0.12209240  0.52222826  0.69871857    -0.02490
H1114       H  0.09149595  0.51537602  0.62423589     0.09670
H1115       H  0.05664122  0.89996791  0.66514155     0.07690
Br1116     Br  0.02038383  0.89626155  0.59023955    -0.02920
C1117       C  0.40384711  0.88550513  0.50100623    -0.09550
C1118       C  0.47522633  0.89337322  0.51531715     0.06640
C1119       C  0.52449238  0.86711787  0.53203190    -0.03320
C1120       C  0.49974650  0.83423111  0.53521141    -0.07770
C1121       C  0.42552845  0.82629413  0.52276516     0.05760
C1122       C  0.37915711  0.85314925  0.50293427    -0.02800
Br1123     Br  0.28531117  0.85212767  0.47143943    -0.02490
H1124       H  0.36642542  0.90503165  0.48629618     0.09670
H1125       H  0.53871332  0.81480023  0.54880630     0.07690
Br1126     Br  0.62465810  0.87475520  0.55257669    -0.02920
C1127       C  0.50263306  0.99432511  0.61778792    -0.09550
C1128       C  0.54657213  0.50998878  0.59914297     0.06640
C1129       C  0.59058214  0.53569888  0.61491708    -0.03320
C1130       C  0.59718222  0.54200479  0.65018078    -0.07770
C1131       C  0.56392854  0.52207365  0.67145532     0.05760
C1132       C  0.50653193  0.00209379  0.65264338    -0.02800
Br1133     Br  0.41723618  0.99428046  0.66565009    -0.02490
H1134       H  0.46097890  0.97792424  0.60426042     0.09670
H1135       H  0.62856122  0.56326054  0.66100513     0.07690
Br1136     Br  0.63770925  0.56497633  0.58912657    -0.02920
C1137       C  0.42225524  0.94356988  0.88501651    -0.09550
C1138       C  0.47143335  0.96881905  0.89561664     0.06640
C1139       C  0.50433992  0.98339054  0.87122165    -0.03320
C1140       C  0.48625820  0.97311488  0.83647279    -0.07770
C1141       C  0.43288130  0.94876647  0.82411188     0.05760
C1142       C  0.40479035  0.93266552  0.85050472    -0.02800
Br1143     Br  0.34861171  0.89329093  0.84466532    -0.02490
H1144       H  0.39906534  0.93124888  0.90430085     0.09670
H1145       H  0.51705590  0.98415328  0.81988363     0.07690
Br1146     Br  0.57195420  0.01863880  0.88375469    -0.02920
C1147       C  0.85953816  0.71168477  0.58933347    -0.09550
C1148       C  0.91931452  0.70415246  0.57463956     0.06640
C1149       C  0.98941348  0.70243378  0.59867331    -0.03320
C1150       C  0.99731064  0.71054035  0.63369732    -0.07770
C1151       C  0.93769972  0.71972201  0.64711902     0.05760
C1152       C  0.86776561  0.71976155  0.62445178    -0.02800
Br1153     Br  0.77965393  0.72950736  0.63900138    -0.02490
H1154       H  0.80449541  0.71036488  0.57417304     0.09670
H1155       H  0.05155724  0.70964029  0.65069400     0.07690
Br1156     Br  0.08008145  0.69084061  0.58716581    -0.02920
C1157       C  0.01211262  0.73391197  0.96890184    -0.09550
C1158       C  0.04242502  0.76320187  0.98527291     0.06640
C1159       C  0.03271948  0.76844571  0.51974417    -0.03320
C1160       C  0.98756981  0.74789845  0.53352560    -0.07770
C1161       C  0.95405431  0.71959236  0.51620740     0.05760
C1162       C  0.96470400  0.71429806  0.98192469    -0.02800
Br1163     Br  0.92246299  0.68033324  0.94962850    -0.02490
H1164       H  0.02351350  0.72600922  0.94463695     0.09670
H1165       H  0.97801875  0.75519206  0.55833912     0.07690
Br1166     Br  0.06997435  0.80434880  0.55049665    -0.02920
C1167       C  0.99758828  0.64740791  0.52468977    -0.09550
C1168       C  0.93512196  0.65779030  0.53601525     0.06640
C1169       C  0.89687321  0.63159521  0.54830921    -0.03320
C1170       C  0.91600409  0.59760787  0.54490600    -0.07770
C1171       C  0.97332253  0.58813793  0.53010733     0.05760
C1172       C  0.01568196  0.61346648  0.52075867    -0.02800
Br1173     Br  0.09553373  0.60458776  0.49958957    -0.02490
H1174       H  0.03327891  0.66549365  0.51797950     0.09670
H1175       H  0.88426244  0.57829101  0.55315332     0.07690
Br1176     Br  0.81398049  0.63842675  0.56766790    -0.02920
C1177       C  0.58035669  0.73751333  0.87178306    -0.09550
C1178       C  0.55013674  0.71206553  0.84944657     0.06640
C1179       C  0.53360037  0.68158819  0.86371906    -0.03320
C1180       C  0.54745453  0.67695014  0.90001652    -0.07770
C1181       C  0.57594258  0.70274195  0.92364661     0.05760
C1182       C  0.59266184  0.73361270  0.90810389    -0.02800
Br1183     Br  0.62809006  0.77346747  0.93299508    -0.02490
H1184       H  0.59254781  0.76125863  0.86070529     0.09670
H1185       H  0.53829076  0.65202373  0.90898599     0.07690
Br1186     Br  0.49684442  0.64442379  0.83473408    -0.02920
C1187       C  0.50884262  0.74352535  0.53338686    -0.09550
C1188       C  0.45215032  0.76501586  0.51274426     0.06640
C1189       C  0.44917019  0.76602574  0.97632422    -0.03320
C1190       C  0.49349154  0.74436430  0.96194371    -0.07770
C1191       C  0.54735085  0.72184128  0.98228105     0.05760
C1192       C  0.55398032  0.72199399  0.51902973    -0.02800
Br1193     Br  0.62340348  0.69402967  0.55267949    -0.02490
H1194       H  0.52083848  0.74338081  0.56156081     0.09670
H1195       H  0.48321238  0.74516929  0.93382310     0.07690
Br1196     Br  0.39156673  0.79734707  0.94273271    -0.02920
C1197       C  0.62705875  0.63678440  0.99439016    -0.09550
C1198       C  0.57297017  0.66000118  0.97481529     0.06640
C1199       C  0.50126289  0.64764175  0.96501437    -0.03320
C1200       C  0.48988752  0.61302565  0.96932326    -0.07770
C1201       C  0.54790993  0.58962178  0.98298933     0.05760
C1202       C  0.61746495  0.60211726  0.99568514    -0.02800
Br1203     Br  0.70424169  0.57406794  0.01389770    -0.02490
H1204       H  0.67943801  0.64475101  0.00819207     0.09670
H1205       H  0.43533584  0.60419182  0.96067898     0.07690
Br1206     Br  0.41574840  0.67487684  0.94302539    -0.02920
C1207       C  0.79893268  0.67581152  0.98814681    -0.09550
C1208       C  0.82838523  0.70061102  0.51234492     0.06640
C1209       C  0.78208621  0.72983656  0.51264254    -0.03320
C1210       C  0.70681792  0.72823891  0.49855661    -0.07770
C1211       C  0.67688458  0.70128387  0.97722566     0.05760
C1212       C  0.72810427  0.67840153  0.96766692    -0.02800
Br1213     Br  0.70608740  0.64523515  0.93163986    -0.02490
H1214       H  0.83100524  0.65379198  0.98411681     0.09670
H1215       H  0.67226754  0.74888978  0.50382448     0.07690
Br1216     Br  0.81463796  0.77186623  0.53371124    -0.02920
loop_ 
_geom_bond_atom_site_label_1 
_geom_bond_atom_site_label_2 
_geom_bond_distance 
_geom_bond_site_symmetry_2 
_ccdc_geom_bond_type 
C1          C269   1.577       .  S
C1          C279   1.571       .  S
C1          C286   1.582       .  S
C1          C299   1.571       .  S
C2          C236   1.577       .  S
C2          C249   1.575       .  S
C2          C256   1.563       .  S
C2          C296   1.572       .  S
O3           C13   1.266       .  A
O3          V315   1.907       .  S
O4          C622   1.265       .  A
O4           V11   1.903       .  S
O5           C15   1.264       .  A
O5           V11   1.912       .  S
O6           C16   1.263       .  A
O6          V923   1.893   1_545  S
O7           C16   1.264       .  A
O7          V620   1.900   1_545  S
O8           C15   1.266       .  A
O8          V316   1.884   1_554  S
O9           C14   1.259       .  A
O9          V924   1.883   1_544  S
O10          C13   1.261       .  A
O10          V12   1.891       .  S
V11         O307   1.907   1_554  S
V11         O918   1.893   1_554  S
V11         V316   2.087   1_554  T
V12         O615   1.900       .  S
V12         O312   1.884       .  S
V12         O921   1.883       .  S
V12         V315   2.087       .  T
C13         C226   1.470       .  S
C14         O612   1.265   1_545  A
C14         C216   1.461       .  S
C15         C206   1.486       .  S
C16         C289   1.484       .  S
O17          C27   1.262       .  A
O17          V25   1.896       .  S
O18          C28   1.263   1_655  A
O18         V329   1.896       .  S
O19          C29   1.264       .  A
O19         V937   1.892   1_545  S
O20          C30   1.264   1_655  A
O20          V25   1.896       .  S
O21          C30   1.262       .  A
O21         V330   1.891       .  S
O22          C29   1.259   1_455  A
O22         V634   1.883   1_545  S
O23          C28   1.264       .  A
O23          V26   1.904       .  S
O24         C635   1.267   1_455  A
O24         V938   1.901   1_545  S
V25         O322   1.896       .  S
V25         O931   1.892       .  S
V25         V330   2.085   1_655  T
V26         O325   1.891   1_554  S
V26         O630   1.883       .  S
V26         O936   1.901   1_554  S
V26         V329   2.085   1_455  T
C27         O632   1.267   1_655  A
C27         C794   1.488       .  S
C28         C196   1.470       .  S
C29         C259   1.470       .  S
C30         C176   1.476       .  S
C31         C159   1.585       .  S
C31         C166   1.573       .  S
C31         C209   1.586       .  S
C31         C276   1.585       .  S
C32         C146   1.587       .  S
C32         C169   1.583       .  S
C32         C179   1.564       .  S
C32         C246   1.572       .  S
C33         C116   1.573       .  S
C33         C126   1.584       .  S
C33         C139   1.590       .  S
C33         C199   1.575       .  S
C34          C96   1.578       .  S
C34         C106   1.583       .  S
C34         C136   1.583       .  S
C34         C229   1.583       .  S
O35          C45   1.263       .  A
O35          V43   1.898       .  S
O36          C46   1.264       .  A
O36          V43   1.903       .  S
O37          C47   1.262       .  A
O37          V43   1.892       .  S
O38          C48   1.263       .  A
O38          V43   1.889       .  S
O39          C48   1.264       .  A
O39          V44   1.904       .  S
O40          C47   1.266       .  A
O40          V44   1.910       .  S
O41          C46   1.267       .  A
O41          V44   1.910       .  S
O42          C45   1.264       .  A
O42          V44   1.899       .  S
V43          V44   2.087       .  T
C45         C266   1.470       .  S
C46         C156   1.481       .  S
C47          C89   1.472       .  S
C48         C109   1.482       .  S
O49          C59   1.263   1_655  A
O49          V57   1.902       .  S
O50          C60   1.263       .  A
O50          V57   1.898       .  S
O51          C61   1.269       .  A
O51          V57   1.913       .  S
O52          C62   1.267   1_655  A
O52          V57   1.917       .  S
O53          C62   1.265       .  A
O53          V58   1.896       .  S
O54          C61   1.263   1_455  A
O54          V58   1.900       .  S
O55          C60   1.265   1_455  A
O55          V58   1.893       .  S
O56          C59   1.266       .  A
O56          V58   1.895       .  S
V57          V58   2.083   1_655  T
C59         C149   1.486       .  S
C60         C239   1.486       .  S
C61          C79   1.490       .  S
C62         C129   1.492       .  S
C63          C66   1.589       .  S
C63          C86   1.574       .  S
C63          C99   1.566       .  S
C63         C219   1.575       .  S
C64          C69   1.587       .  S
C64          C76   1.585       .  S
C64         C119   1.586       .  S
C64         C189   1.566       .  S
C65          C66   1.419   1_565  A
C65          C70   1.412       .  A
C65          H72   1.076       .  S
C66          C67   1.410       .  A
C67          C68   1.393       .  A
C67         Br74   1.926       .  S
C68          C69   1.421       .  A
C68          H73   1.080       .  S
C69          C70   1.434   1_545  A
C70         Br71   1.917       .  S
C75          C76   1.420       .  A
C75          C80   1.403       .  A
C75          H82   1.077   1_655  S
C76          C77   1.433       .  A
C77          C78   1.401       .  A
C77         Br84   1.915       .  S
C78          C79   1.396       .  A
C78          H83   1.084       .  S
C79          C80   1.410       .  A
C80         Br81   1.921   1_655  S
C85          C86   1.420       .  A
C85          C90   1.393       .  A
C85          H92   1.080       .  S
C86          C87   1.428       .  A
C87          C88   1.404       .  A
C87         Br94   1.921       .  S
C88          C89   1.399       .  A
C88          H93   1.084       .  S
C89          C90   1.400       .  A
C90         Br91   1.917       .  S
C95          C96   1.417       .  A
C95         C100   1.405       .  A
C95         H102   1.077       .  S
C96         C705   1.428       .  A
C97          C98   1.394   1_565  A
C97         C704   1.428       .  A
C97        Br104   1.924   1_565  S
C98          C99   1.412       .  A
C98         H103   1.078       .  S
C99         C708   1.425   1_545  A
C100        C707   1.425       .  A
C100       Br101   1.930       .  S
C105        C106   1.419       .  A
C105        C110   1.385       .  A
C105        H112   1.071       .  S
C106        C107   1.428       .  A
C107        C108   1.409       .  A
C107       Br114   1.922       .  S
C108        C109   1.406       .  A
C108        H113   1.082       .  S
C109        C110   1.403       .  A
C110       Br111   1.928       .  S
C115        C116   1.412       .  A
C115        C120   1.409   1_455  A
C115        H122   1.081       .  S
C116        C725   1.426   1_455  A
C117        C118   1.398   1_565  A
C117        C724   1.426   1_655  A
C117       Br124   1.929       .  S
C118        C119   1.414       .  A
C118        H123   1.076       .  S
C119        C728   1.437   1_545  A
C120        C727   1.437       .  A
C120       Br121   1.927       .  S
C125        C126   1.424   1_655  A
C125        C130   1.409       .  A
C125        H132   1.081       .  S
C126        C127   1.425       .  A
C127        C128   1.396       .  A
C127       Br134   1.898       .  S
C128        C129   1.396       .  A
C128        H133   1.084       .  S
C129        C130   1.409   1_455  A
C130       Br131   1.917       .  S
C135        C136   1.412       .  A
C135        C140   1.413       .  A
C135        H142   1.080       .  S
C136        C137   1.427       .  A
C137        C138   1.399       .  A
C137       Br144   1.926       .  S
C138        C139   1.418       .  A
C138        H143   1.081       .  S
C139        C140   1.436       .  A
C140       Br141   1.915       .  S
C145        C146   1.421   1_655  A
C145        C150   1.400       .  A
C145        H152   1.073       .  S
C146        C147   1.430       .  A
C147        C148   1.397       .  A
C147       Br154   1.899       .  S
C148        C149   1.396       .  A
C148        H153   1.084       .  S
C149        C150   1.407   1_455  A
C150       Br151   1.921       .  S
C155        C156   1.393       .  A
C155        C160   1.400       .  A
C155        H162   1.082       .  S
C156        C157   1.403       .  A
C157        C158   1.404       .  A
C157       Br164   1.920       .  S
C158        C159   1.423       .  A
C158        H163   1.077       .  S
C159        C160   1.437       .  A
C160       Br161   1.923       .  S
C165        C166   1.419   1_556  A
C165        C474   1.417       .  A
C165        H172   1.080       .  S
C166        C167   1.424       .  A
C167        C472   1.400       .  A
C167       Br174   1.927       .  S
C168        C169   1.413       .  A
C168        C471   1.400       .  A
C168        H173   1.075       .  S
C169        C170   1.425       .  A
C170        C469   1.417       .  A
C170       Br171   1.920       .  S
C175        C176   1.399   1_655  A
C175        C180   1.399       .  A
C175        H182   1.083       .  S
C176        C177   1.406       .  A
C177        C178   1.394       .  A
C177       Br184   1.923       .  S
C178        C179   1.411       .  A
C178        H183   1.073       .  S
C179        C180   1.431   1_455  A
C180       Br181   1.924       .  S
C185        C794   1.399       .  A
C185        C798   1.398       .  A
C185        H192   1.083   1_655  S
C186        C635   1.488       .  S
C186        C187   1.411       .  A
C186        C793   1.399       .  A
C187        C188   1.399       .  A
C187       Br194   1.922       .  S
C188        C189   1.416       .  A
C188        H193   1.075       .  S
C189        C190   1.431       .  A
C190        C793   1.398       .  A
C190       Br799   1.916   1_655  S
Br191       C798   1.916   1_455  S
C195        C196   1.398       .  A
C195        C200   1.404       .  A
C195        H810   1.084       .  S
C196        C197   1.397       .  A
C197        C198   1.395       .  A
C197       Br204   1.921       .  S
C198        C199   1.424       .  A
C198        H203   1.077       .  S
C199        C200   1.432       .  A
C200       Br809   1.919       .  S
Br201       C808   1.919   1_545  S
H202        C803   1.084   1_545  S
C205        C206   1.386       .  A
C205        C210   1.385       .  A
C205        H212   1.085   1_554  S
C206        C207   1.409       .  A
C207        C208   1.412       .  A
C207       Br214   1.916       .  S
C208        C209   1.425       .  A
C208        H213   1.082       .  S
C209        C210   1.440       .  A
C210       Br211   1.911   1_554  S
C215        C220   1.397       .  A
C215        C824   1.394       .  A
C215        H222   1.084       .  S
C216        C217   1.396       .  A
C216        C823   1.394   1_545  A
C217        C218   1.392       .  A
C217       Br224   1.912       .  S
C218        C219   1.413       .  A
C218        H223   1.081       .  S
C219        C828   1.433       .  A
C220        C827   1.433       .  A
C220       Br221   1.922       .  S
C225        C226   1.392       .  A
C225        C230   1.398       .  A
C225        H232   1.085       .  S
C226        C227   1.396       .  A
C227        C228   1.399       .  A
C227       Br234   1.920       .  S
C228        C229   1.429       .  A
C228        H233   1.076       .  S
C229        C230   1.430       .  A
C230       Br231   1.905       .  S
C235        C236   1.418       .  A
C235        C240   1.398       .  A
C235        H242   1.074       .  S
C236        C237   1.433       .  A
C237        C238   1.395       .  A
C237       Br244   1.925   1_655  S
C238        C239   1.399       .  A
C238        H243   1.083   1_655  S
C239        C240   1.409       .  A
C240       Br241   1.924       .  S
C245        C246   1.407       .  A
C245        C250   1.393   1_455  A
C245        H252   1.078       .  S
C246        C551   1.432       .  A
C247        C248   1.399   1_455  A
C247        C550   1.432   1_554  A
C247       Br254   1.922       .  S
C248        C249   1.410       .  A
C248        H253   1.078       .  S
C249        C554   1.431   1_554  A
C250        C553   1.431       .  A
C250       Br251   1.924       .  S
C255        C256   1.414       .  A
C255        C260   1.390   1_655  A
C255        H262   1.077   1_655  S
C256        C257   1.431       .  A
C257        C258   1.393       .  A
C257       Br264   1.921       .  S
C258        C259   1.396       .  A
C258        H263   1.084       .  S
C259        C260   1.407   1_655  A
C260       Br261   1.924   1_554  S
C265        C266   1.393       .  A
C265        C270   1.398       .  A
C265        H272   1.084       .  S
C266        C267   1.399       .  A
C267        C268   1.398       .  A
C267       Br274   1.921       .  S
C268        C269   1.423       .  A
C268        H273   1.075       .  S
C269        C270   1.436       .  A
C270       Br271   1.924       .  S
C275        C276   1.421       .  A
C275        C280   1.404       .  A
C275        H282   1.078       .  S
C276        C581   1.422   1_554  A
C277        C278   1.397       .  A
C277        C580   1.422       .  A
C277       Br284   1.901       .  S
C278        C279   1.409       .  A
C278        H283   1.077       .  S
C279        C584   1.423       .  A
C280        C583   1.423   1_554  A
C280       Br281   1.924       .  S
C285        C286   1.417       .  A
C285        C290   1.389       .  A
C285        H292   1.073       .  S
C286        C287   1.430       .  A
C287        C288   1.406       .  A
C287       Br294   1.921       .  S
C288        C289   1.404       .  A
C288        H293   1.083       .  S
C289        C290   1.406       .  A
C290       Br291   1.926       .  S
C295        C300   1.389       .  A
C295        C600   1.412       .  A
C295        H302   1.077       .  S
C296        C297   1.424       .  A
C296        C599   1.412   1_554  A
C297        C298   1.407   1_554  A
C297       Br304   1.923       .  S
C298        C603   1.416       .  A
C298        H303   1.080   1_556  S
C299        C300   1.422       .  A
C299        C602   1.416       .  A
C300       Br301   1.928       .  S
C305        C573   1.577       .  S
C305        C583   1.571       .  S
C305        C590   1.582       .  S
C305        C603   1.571       .  S
C306        C540   1.577       .  S
C306        C553   1.575       .  S
C306        C560   1.563       .  S
C306        C600   1.572       .  S
O307        C317   1.266       .  A
O308        C926   1.265       .  A
O308        V315   1.903       .  S
O309        C319   1.264       .  A
O309        V315   1.912       .  S
O310        C320   1.263       .  A
O310        V619   1.893   1_546  S
O311        C320   1.264       .  A
O311        V924   1.900   1_545  S
O312        C319   1.266       .  A
O313        C318   1.259       .  A
O313        V620   1.883   1_545  S
O314        C317   1.261       .  A
O314        V316   1.891       .  S
V315        O614   1.893       .  S
V316        O919   1.900       .  S
V316        O617   1.883   1_556  S
C317        C530   1.470       .  S
C318        O916   1.265   1_545  A
C318        C520   1.461       .  S
C319        C510   1.486       .  S
C320        C593   1.484       .  S
O321        C331   1.262       .  A
O321        V329   1.896   1_556  S
O322        C332   1.263   1_655  A
O323        C333   1.264       .  A
O323        V633   1.892   1_545  S
O324        C334   1.264   1_655  A
O324        V329   1.896   1_556  S
O325        C334   1.262       .  A
O326        C333   1.259   1_455  A
O326        V938   1.883   1_545  S
O327        C332   1.264       .  A
O327        V330   1.904       .  S
O328        C939   1.267   1_455  A
O328        V634   1.901   1_546  S
V329        O627   1.892       .  S
V330        O934   1.883       .  S
V330        O632   1.901       .  S
C331        O936   1.267   1_655  A
C331       C1098   1.488       .  S
C332        C500   1.470       .  S
C333        C563   1.470       .  S
C334        C480   1.476       .  S
C335        C463   1.585       .  S
C335        C470   1.573       .  S
C335        C513   1.586       .  S
C335        C580   1.585       .  S
C336        C450   1.587       .  S
C336        C473   1.583       .  S
C336        C483   1.564       .  S
C336        C550   1.572       .  S
C337        C420   1.573       .  S
C337        C430   1.584       .  S
C337        C443   1.590       .  S
C337        C503   1.575       .  S
C338        C400   1.578       .  S
C338        C410   1.583       .  S
C338        C440   1.583       .  S
C338        C533   1.583       .  S
O339        C349   1.263       .  A
O339        V347   1.898       .  S
O340        C350   1.264       .  A
O340        V347   1.903       .  S
O341        C351   1.262       .  A
O341        V347   1.892       .  S
O342        C352   1.263       .  A
O342        V347   1.889       .  S
O343        C352   1.264       .  A
O343        V348   1.904       .  S
O344        C351   1.266       .  A
O344        V348   1.910       .  S
O345        C350   1.267       .  A
O345        V348   1.910       .  S
O346        C349   1.264       .  A
O346        V348   1.899       .  S
V347        V348   2.087       .  T
C349        C570   1.470       .  S
C350        C460   1.481       .  S
C351        C393   1.472       .  S
C352        C413   1.482       .  S
O353        C363   1.263   1_655  A
O353        V361   1.902       .  S
O354        C364   1.263       .  A
O354        V361   1.898       .  S
O355        C365   1.269       .  A
O355        V361   1.913       .  S
O356        C366   1.267   1_655  A
O356        V361   1.917       .  S
O357        C366   1.265       .  A
O357        V362   1.896       .  S
O358        C365   1.263   1_455  A
O358        V362   1.900       .  S
O359        C364   1.265   1_455  A
O359        V362   1.893       .  S
O360        C363   1.266       .  A
O360        V362   1.895       .  S
V361        V362   2.083   1_655  T
C363        C453   1.486       .  S
C364        C543   1.486       .  S
C365        C383   1.490       .  S
C366        C433   1.492       .  S
C367        C370   1.589       .  S
C367        C390   1.574       .  S
C367        C403   1.566       .  S
C367        C523   1.575       .  S
C368        C373   1.587       .  S
C368        C380   1.585       .  S
C368        C423   1.586       .  S
C368        C493   1.566       .  S
C369        C370   1.419   1_565  A
C369        C374   1.412       .  A
C369        H376   1.076       .  S
C370        C371   1.411       .  A
C371        C372   1.393       .  A
C371       Br378   1.926       .  S
C372        C373   1.421       .  A
C372        H377   1.080       .  S
C373        C374   1.434   1_545  A
C374       Br375   1.917       .  S
C379        C380   1.420       .  A
C379        C384   1.403       .  A
C379        H386   1.077   1_655  S
C380        C381   1.433       .  A
C381        C382   1.401       .  A
C381       Br388   1.915       .  S
C382        C383   1.396       .  A
C382        H387   1.084       .  S
C383        C384   1.410       .  A
C384       Br385   1.921   1_655  S
C389        C390   1.420       .  A
C389        C394   1.393       .  A
C389        H396   1.080       .  S
C390        C391   1.428       .  A
C391        C392   1.404       .  A
C391       Br398   1.921       .  S
C392        C393   1.399       .  A
C392        H397   1.084       .  S
C393        C394   1.400       .  A
C394       Br395   1.917       .  S
C399        C400   1.417       .  A
C399        C404   1.405       .  A
C399        H406   1.077       .  S
C400       C1009   1.428       .  A
C401       C1008   1.428       .  A
C401        C402   1.394   1_565  A
C401       Br408   1.924   1_565  S
C402        C403   1.412       .  A
C402        H407   1.078       .  S
C403       C1012   1.425   1_545  A
C404       C1011   1.425       .  A
C404       Br405   1.930       .  S
C409        C410   1.419       .  A
C409        C414   1.385       .  A
C409        H416   1.071       .  S
C410        C411   1.428       .  A
C411        C412   1.409       .  A
C411       Br418   1.922       .  S
C412        C413   1.406       .  A
C412        H417   1.082       .  S
C413        C414   1.403       .  A
C414       Br415   1.928       .  S
C419        C420   1.412       .  A
C419        C424   1.409   1_455  A
C419        H426   1.081       .  S
C420       C1029   1.426   1_455  A
C421       C1028   1.426   1_655  A
C421        C422   1.398   1_565  A
C421       Br428   1.929       .  S
C422        C423   1.414       .  A
C422        H427   1.076       .  S
C423       C1032   1.437   1_545  A
C424       C1031   1.437       .  A
C424       Br425   1.927       .  S
C429        C430   1.424   1_655  A
C429        C434   1.409       .  A
C429        H436   1.081       .  S
C430        C431   1.425       .  A
C431        C432   1.396       .  A
C431       Br438   1.898       .  S
C432        C433   1.396       .  A
C432        H437   1.084       .  S
C433        C434   1.409   1_455  A
C434       Br435   1.917       .  S
C439        C440   1.412       .  A
C439        C444   1.413       .  A
C439        H446   1.080       .  S
C440        C441   1.427       .  A
C441        C442   1.399       .  A
C441       Br448   1.926       .  S
C442        C443   1.418       .  A
C442        H447   1.081       .  S
C443        C444   1.436       .  A
C444       Br445   1.915       .  S
C449        C450   1.421   1_655  A
C449        C454   1.400       .  A
C449        H456   1.073       .  S
C450        C451   1.430       .  A
C451        C452   1.397       .  A
C451       Br458   1.899       .  S
C452        C453   1.396       .  A
C452        H457   1.084       .  S
C453        C454   1.407   1_455  A
C454       Br455   1.921       .  S
C459        C460   1.393       .  A
C459        C464   1.400       .  A
C459        H466   1.082       .  S
C460        C461   1.403       .  A
C461        C462   1.404       .  A
C461       Br468   1.920       .  S
C462        C463   1.423       .  A
C462        H467   1.077       .  S
C463        C464   1.437       .  A
C464       Br465   1.923       .  S
C469        C470   1.419       .  A
C469        H476   1.080       .  S
C470        C471   1.424       .  A
C471       Br478   1.927       .  S
C472        C473   1.413   1_554  A
C472        H477   1.075       .  S
C473        C474   1.425       .  A
C474       Br475   1.920       .  S
C479        C480   1.399   1_655  A
C479        C484   1.399       .  A
C479        H486   1.083       .  S
C480        C481   1.406       .  A
C481        C482   1.394       .  A
C481       Br488   1.923       .  S
C482        C483   1.411       .  A
C482        H487   1.073       .  S
C483        C484   1.431   1_455  A
C484       Br485   1.924       .  S
C489       C1098   1.399       .  A
C489       C1102   1.398       .  A
C489        H496   1.083   1_655  S
C490        C939   1.488       .  S
C490       C1097   1.399       .  A
C490        C491   1.411       .  A
C491        C492   1.399       .  A
C491       Br498   1.922       .  S
C492        C493   1.416       .  A
C492        H497   1.075       .  S
C493        C494   1.431       .  A
C494       C1097   1.398       .  A
C494      Br1103   1.916   1_655  S
Br495      C1102   1.916   1_455  S
C499        C500   1.398       .  A
C499        C504   1.404       .  A
C499       H1114   1.084       .  S
C500        C501   1.397       .  A
C501        C502   1.395       .  A
C501       Br508   1.921       .  S
C502        C503   1.424       .  A
C502        H507   1.077       .  S
C503        C504   1.432       .  A
C504      Br1113   1.919       .  S
Br505      C1112   1.919   1_545  S
H506       C1107   1.084   1_545  S
C509        C510   1.386       .  A
C509        C514   1.385       .  A
C509        H516   1.085       .  S
C510        C511   1.409       .  A
C511        C512   1.412       .  A
C511       Br518   1.916       .  S
C512        C513   1.425       .  A
C512        H517   1.082       .  S
C513        C514   1.440       .  A
C514       Br515   1.911       .  S
C519       C1128   1.394       .  A
C519        C524   1.397       .  A
C519        H526   1.084       .  S
C520       C1127   1.394   1_545  A
C520        C521   1.396       .  A
C521        C522   1.392       .  A
C521       Br528   1.912       .  S
C522        C523   1.413       .  A
C522        H527   1.081       .  S
C523       C1132   1.433       .  A
C524       C1131   1.433       .  A
C524       Br525   1.922       .  S
C529        C530   1.392       .  A
C529        C534   1.398       .  A
C529        H536   1.085       .  S
C530        C531   1.396       .  A
C531        C532   1.399       .  A
C531       Br538   1.920       .  S
C532        C533   1.429       .  A
C532        H537   1.076       .  S
C533        C534   1.430       .  A
C534       Br535   1.905       .  S
C539        C540   1.418       .  A
C539        C544   1.398       .  A
C539        H546   1.074       .  S
C540        C541   1.433       .  A
C541        C542   1.395       .  A
C541       Br548   1.925   1_655  S
C542        C543   1.399       .  A
C542        H547   1.083   1_655  S
C543        C544   1.409       .  A
C544       Br545   1.924       .  S
C549        C550   1.407       .  A
C549        C554   1.393   1_455  A
C549        H556   1.078       .  S
C551        C552   1.399   1_455  A
C551       Br558   1.922       .  S
C552        C553   1.410       .  A
C552        H557   1.078       .  S
C554       Br555   1.924       .  S
C559        C560   1.414       .  A
C559        C564   1.390   1_655  A
C559        H566   1.077   1_655  S
C560        C561   1.431       .  A
C561        C562   1.393       .  A
C561       Br568   1.921       .  S
C562        C563   1.396       .  A
C562        H567   1.084       .  S
C563        C564   1.407   1_655  A
C564       Br565   1.924       .  S
C569        C570   1.393       .  A
C569        C574   1.398       .  A
C569        H576   1.084       .  S
C570        C571   1.399       .  A
C571        C572   1.398       .  A
C571       Br578   1.921       .  S
C572        C573   1.423       .  A
C572        H577   1.075       .  S
C573        C574   1.436       .  A
C574       Br575   1.924       .  S
C579        C580   1.421       .  A
C579        C584   1.404       .  A
C579        H586   1.078       .  S
C581        C582   1.397       .  A
C581       Br588   1.901       .  S
C582        C583   1.409       .  A
C582        H587   1.077       .  S
C584       Br585   1.924       .  S
C589        C590   1.417       .  A
C589        C594   1.389       .  A
C589        H596   1.073   1_556  S
C590        C591   1.430       .  A
C591        C592   1.406       .  A
C591       Br598   1.921       .  S
C592        C593   1.404       .  A
C592        H597   1.083       .  S
C593        C594   1.406       .  A
C594       Br595   1.926   1_556  S
C599        C604   1.389       .  A
C599        H606   1.077       .  S
C600        C601   1.424       .  A
C601        C602   1.407       .  A
C601       Br608   1.923       .  S
C602        H607   1.080       .  S
C603        C604   1.422       .  A
C604       Br605   1.928       .  S
C609        C877   1.577       .  S
C609        C887   1.571       .  S
C609        C894   1.582       .  S
C609        C907   1.571       .  S
C610        C844   1.577       .  S
C610        C857   1.575       .  S
C610        C864   1.563       .  S
C610        C904   1.572       .  S
O611        C621   1.266       .  A
O611        V923   1.907       .  S
O612        V619   1.903       .  S
O613        C623   1.264       .  A
O613        V619   1.912       .  S
O614        C624   1.263       .  A
O615        C624   1.264       .  A
O616        C623   1.266       .  A
O616        V924   1.884   1_554  S
O617        C622   1.259       .  A
O618        C621   1.261       .  A
O618        V620   1.891       .  S
V619        O915   1.907   1_554  S
V619        V924   2.087   1_554  T
V620        O920   1.884       .  S
V620        V923   2.087       .  T
C621        C834   1.470       .  S
C622        C824   1.461       .  S
C623        C814   1.486       .  S
C624        C897   1.484       .  S
O625        C635   1.262       .  A
O625        V633   1.896   1_545  S
O626        C636   1.263   1_655  A
O626        V937   1.896       .  S
O627        C637   1.264       .  A
O628        C638   1.264   1_655  A
O628        V633   1.896       .  S
O629        C638   1.262       .  A
O629        V938   1.891       .  S
O630        C637   1.259   1_455  A
O631        C636   1.264       .  A
O631        V634   1.904       .  S
V633        O930   1.896       .  S
V633        V938   2.085   1_655  T
V634        O933   1.891   1_554  S
V634        V937   2.085   1_455  T
C636        C804   1.470       .  S
C637        C867   1.470       .  S
C638        C784   1.476       .  S
C639        C767   1.585       .  S
C639        C774   1.573       .  S
C639        C817   1.586       .  S
C639        C884   1.585       .  S
C640        C754   1.587       .  S
C640        C777   1.583       .  S
C640        C787   1.564       .  S
C640        C854   1.572       .  S
C641        C724   1.573       .  S
C641        C734   1.584       .  S
C641        C747   1.590       .  S
C641        C807   1.575       .  S
C642        C704   1.578       .  S
C642        C714   1.583       .  S
C642        C744   1.583       .  S
C642        C837   1.583       .  S
O643        C653   1.263       .  A
O643        V651   1.898       .  S
O644        C654   1.264       .  A
O644        V651   1.903       .  S
O645        C655   1.262       .  A
O645        V651   1.892       .  S
O646        C656   1.263       .  A
O646        V651   1.889       .  S
O647        C656   1.264       .  A
O647        V652   1.904       .  S
O648        C655   1.266       .  A
O648        V652   1.910       .  S
O649        C654   1.267       .  A
O649        V652   1.910       .  S
O650        C653   1.264       .  A
O650        V652   1.899       .  S
V651        V652   2.087       .  T
C653        C874   1.470       .  S
C654        C764   1.481       .  S
C655        C697   1.472       .  S
C656        C717   1.482       .  S
O657        C667   1.263   1_655  A
O657        V665   1.902       .  S
O658        C668   1.263       .  A
O658        V665   1.898       .  S
O659        C669   1.269       .  A
O659        V665   1.913       .  S
O660        C670   1.267   1_655  A
O660        V665   1.917       .  S
O661        C670   1.265       .  A
O661        V666   1.896       .  S
O662        C669   1.263   1_455  A
O662        V666   1.900       .  S
O663        C668   1.265   1_455  A
O663        V666   1.893       .  S
O664        C667   1.266       .  A
O664        V666   1.895       .  S
V665        V666   2.083   1_655  T
C667        C757   1.486       .  S
C668        C847   1.486       .  S
C669        C687   1.490       .  S
C670        C737   1.492       .  S
C671        C674   1.589       .  S
C671        C694   1.574       .  S
C671        C707   1.566       .  S
C671        C827   1.575       .  S
C672        C677   1.587       .  S
C672        C684   1.585       .  S
C672        C727   1.586       .  S
C672        C797   1.566       .  S
C673        C674   1.419       .  A
C673        C678   1.412       .  A
C673        H680   1.076       .  S
C674        C675   1.410       .  A
C675        C676   1.393       .  A
C675       Br682   1.926       .  S
C676        C677   1.421       .  A
C676        H681   1.080       .  S
C677        C678   1.434       .  A
C678       Br679   1.917       .  S
C683        C684   1.420       .  A
C683        C688   1.403       .  A
C683        H690   1.077   1_655  S
C684        C685   1.433       .  A
C685        C686   1.401       .  A
C685       Br692   1.915       .  S
C686        C687   1.396       .  A
C686        H691   1.084       .  S
C687        C688   1.410       .  A
C688       Br689   1.921   1_655  S
C693        C694   1.420       .  A
C693        C698   1.393       .  A
C693        H700   1.080       .  S
C694        C695   1.428       .  A
C695        C696   1.404       .  A
C695       Br702   1.921       .  S
C696        C697   1.399       .  A
C696        H701   1.084       .  S
C697        C698   1.400       .  A
C698       Br699   1.917       .  S
C703        C704   1.417       .  A
C703        C708   1.405       .  A
C703        H710   1.077       .  S
C705        C706   1.394       .  A
C705       Br712   1.924       .  S
C706        C707   1.412       .  A
C706        H711   1.078       .  S
C708       Br709   1.930       .  S
C713        C714   1.419       .  A
C713        C718   1.385       .  A
C713        H720   1.071       .  S
C714        C715   1.428       .  A
C715        C716   1.409       .  A
C715       Br722   1.922       .  S
C716        C717   1.406       .  A
C716        H721   1.082       .  S
C717        C718   1.403       .  A
C718       Br719   1.928       .  S
C723        C724   1.412       .  A
C723        C728   1.409   1_455  A
C723        H730   1.081       .  S
C725        C726   1.398       .  A
C725       Br732   1.929       .  S
C726        C727   1.414       .  A
C726        H731   1.076       .  S
C728       Br729   1.927       .  S
C733        C734   1.424   1_655  A
C733        C738   1.409       .  A
C733        H740   1.081       .  S
C734        C735   1.425       .  A
C735        C736   1.396       .  A
C735       Br742   1.898       .  S
C736        C737   1.396       .  A
C736        H741   1.084       .  S
C737        C738   1.409   1_455  A
C738       Br739   1.917       .  S
C743        C744   1.412       .  A
C743        C748   1.413       .  A
C743        H750   1.080       .  S
C744        C745   1.427       .  A
C745        C746   1.399       .  A
C745       Br752   1.926       .  S
C746        C747   1.418       .  A
C746        H751   1.081       .  S
C747        C748   1.436       .  A
C748       Br749   1.915   1_565  S
C753        C754   1.421   1_655  A
C753        C758   1.400       .  A
C753        H760   1.073       .  S
C754        C755   1.430       .  A
C755        C756   1.397       .  A
C755       Br762   1.899       .  S
C756        C757   1.396       .  A
C756        H761   1.084       .  S
C757        C758   1.407   1_455  A
C758       Br759   1.921       .  S
C763        C764   1.393       .  A
C763        C768   1.400       .  A
C763        H770   1.082       .  S
C764        C765   1.403       .  A
C765        C766   1.404       .  A
C765       Br772   1.920       .  S
C766        C767   1.423       .  A
C766        H771   1.077       .  S
C767        C768   1.437       .  A
C768       Br769   1.923       .  S
C773        C774   1.419   1_556  A
C773       C1082   1.417       .  A
C773        H780   1.080       .  S
C774        C775   1.424       .  A
C775       C1080   1.400       .  A
C775       Br782   1.927       .  S
C776       C1079   1.400       .  A
C776        C777   1.413       .  A
C776        H781   1.075       .  S
C777        C778   1.425       .  A
C778       C1077   1.417       .  A
C778       Br779   1.920       .  S
C783        C784   1.399   1_655  A
C783        C788   1.399       .  A
C783        H790   1.083       .  S
C784        C785   1.406       .  A
C785        C786   1.394       .  A
C785       Br792   1.923       .  S
C786        C787   1.411       .  A
C786        H791   1.073       .  S
C787        C788   1.431   1_455  A
C788       Br789   1.924       .  S
C793        H800   1.083   1_655  S
C794        C795   1.411       .  A
C795        C796   1.399       .  A
C795       Br802   1.922       .  S
C796        C797   1.416       .  A
C796        H801   1.075       .  S
C797        C798   1.431       .  A
C803        C804   1.398       .  A
C803        C808   1.404       .  A
C804        C805   1.397       .  A
C805        C806   1.395       .  A
C805       Br812   1.921       .  S
C806        C807   1.424       .  A
C806        H811   1.077       .  S
C807        C808   1.432       .  A
C813        C814   1.386       .  A
C813        C818   1.385       .  A
C813        H820   1.085   1_554  S
C814        C815   1.409       .  A
C815        C816   1.412       .  A
C815       Br822   1.916       .  S
C816        C817   1.425       .  A
C816        H821   1.082       .  S
C817        C818   1.440       .  A
C818       Br819   1.911   1_554  S
C823        C828   1.397   1_565  A
C823        H830   1.084       .  S
C824        C825   1.396       .  A
C825        C826   1.392       .  A
C825       Br832   1.912       .  S
C826        C827   1.413       .  A
C826        H831   1.081       .  S
C828       Br829   1.922   1_545  S
C833        C834   1.392       .  A
C833        C838   1.398       .  A
C833        H840   1.085       .  S
C834        C835   1.396       .  A
C835        C836   1.399       .  A
C835       Br842   1.920   1_565  S
C836        C837   1.429       .  A
C836        H841   1.076       .  S
C837        C838   1.430       .  A
C838       Br839   1.905       .  S
C843        C844   1.418       .  A
C843        C848   1.398       .  A
C843        H850   1.074       .  S
C844        C845   1.433       .  A
C845        C846   1.395       .  A
C845       Br852   1.925   1_655  S
C846        C847   1.399       .  A
C846        H851   1.083   1_655  S
C847        C848   1.409       .  A
C848       Br849   1.924       .  S
C853        C854   1.407       .  A
C853        C858   1.393   1_455  A
C853        H860   1.078       .  S
C854       C1159   1.432       .  A
C855       C1158   1.432   1_554  A
C855        C856   1.399   1_455  A
C855       Br862   1.922       .  S
C856        C857   1.410       .  A
C856        H861   1.078       .  S
C857       C1162   1.431   1_554  A
C858       C1161   1.431       .  A
C858       Br859   1.924       .  S
C863        C864   1.414       .  A
C863        C868   1.390   1_655  A
C863        H870   1.077   1_655  S
C864        C865   1.431       .  A
C865        C866   1.393       .  A
C865       Br872   1.921       .  S
C866        C867   1.396       .  A
C866        H871   1.084       .  S
C867        C868   1.407   1_655  A
C868       Br869   1.924   1_554  S
C873        C874   1.393       .  A
C873        C878   1.398       .  A
C873        H880   1.084       .  S
C874        C875   1.399       .  A
C875        C876   1.398       .  A
C875       Br882   1.921       .  S
C876        C877   1.423       .  A
C876        H881   1.075       .  S
C877        C878   1.436       .  A
C878       Br879   1.924       .  S
C883        C884   1.421       .  A
C883        C888   1.404       .  A
C883        H890   1.078       .  S
C884       C1189   1.422   1_554  A
C885       C1188   1.422       .  A
C885        C886   1.397       .  A
C885       Br892   1.901       .  S
C886        C887   1.409       .  A
C886        H891   1.077       .  S
C887       C1192   1.423       .  A
C888       C1191   1.423   1_554  A
C888       Br889   1.924       .  S
C893        C894   1.417       .  A
C893        C898   1.389       .  A
C893        H900   1.073       .  S
C894        C895   1.430       .  A
C895        C896   1.406       .  A
C895       Br902   1.921       .  S
C896        C897   1.404       .  A
C896        H901   1.083       .  S
C897        C898   1.406       .  A
C898       Br899   1.926       .  S
C903       C1208   1.412       .  A
C903        C908   1.389       .  A
C903        H910   1.077       .  S
C904       C1207   1.412   1_554  A
C904        C905   1.424       .  A
C905        C906   1.407   1_554  A
C905       Br912   1.923       .  S
C906       C1211   1.416       .  A
C906        H911   1.080   1_556  S
C907       C1210   1.416       .  A
C907        C908   1.422       .  A
C908       Br909   1.928       .  S
C913       C1181   1.577       .  S
C913       C1191   1.571       .  S
C913       C1198   1.582       .  S
C913       C1211   1.571       .  S
C914       C1148   1.577       .  S
C914       C1161   1.575       .  S
C914       C1168   1.563       .  S
C914       C1208   1.572       .  S
O915        C925   1.266       .  A
O916        V923   1.903       .  S
O917        C927   1.264       .  A
O917        V923   1.912       .  S
O918        C928   1.263       .  A
O919        C928   1.264       .  A
O920        C927   1.266       .  A
O921        C926   1.259       .  A
O922        C925   1.261       .  A
O922        V924   1.891       .  S
C925       C1138   1.470       .  S
C926       C1128   1.461       .  S
C927       C1118   1.486       .  S
C928       C1201   1.484       .  S
O929        C939   1.262       .  A
O929        V937   1.896   1_546  S
O930        C940   1.263   1_655  A
O931        C941   1.264       .  A
O932        C942   1.264   1_655  A
O932        V937   1.896   1_556  S
O933        C942   1.262       .  A
O934        C941   1.259   1_455  A
O935        C940   1.264       .  A
O935        V938   1.904       .  S
C940       C1108   1.470       .  S
C941       C1171   1.470       .  S
C942       C1088   1.476       .  S
C943       C1071   1.585       .  S
C943       C1078   1.573       .  S
C943       C1121   1.586       .  S
C943       C1188   1.585       .  S
C944       C1058   1.587       .  S
C944       C1081   1.583       .  S
C944       C1091   1.564       .  S
C944       C1158   1.572       .  S
C945       C1028   1.573       .  S
C945       C1038   1.584       .  S
C945       C1051   1.590       .  S
C945       C1111   1.575       .  S
C946       C1008   1.578       .  S
C946       C1018   1.583       .  S
C946       C1048   1.583       .  S
C946       C1141   1.583       .  S
O947        C957   1.263       .  A
O947        V955   1.898       .  S
O948        C958   1.264       .  A
O948        V955   1.903       .  S
O949        C959   1.262       .  A
O949        V955   1.892       .  S
O950        C960   1.263       .  A
O950        V955   1.889       .  S
O951        C960   1.264       .  A
O951        V956   1.904       .  S
O952        C959   1.266       .  A
O952        V956   1.910       .  S
O953        C958   1.267       .  A
O953        V956   1.910       .  S
O954        C957   1.264       .  A
O954        V956   1.899       .  S
V955        V956   2.087       .  T
C957       C1178   1.470       .  S
C958       C1068   1.481       .  S
C959       C1001   1.472       .  S
C960       C1021   1.482       .  S
O961        C971   1.263   1_655  A
O961        V969   1.902       .  S
O962        C972   1.263       .  A
O962        V969   1.898       .  S
O963        C973   1.269       .  A
O963        V969   1.913       .  S
O964        C974   1.267   1_655  A
O964        V969   1.917       .  S
O965        C974   1.265       .  A
O965        V970   1.896       .  S
O966        C973   1.263   1_455  A
O966        V970   1.900       .  S
O967        C972   1.265   1_455  A
O967        V970   1.893       .  S
O968        C971   1.266       .  A
O968        V970   1.895       .  S
V969        V970   2.083   1_655  T
C971       C1061   1.486       .  S
C972       C1151   1.486       .  S
C973        C991   1.490       .  S
C974       C1041   1.492       .  S
C975        C978   1.589       .  S
C975        C998   1.574       .  S
C975       C1011   1.566       .  S
C975       C1131   1.575       .  S
C976        C981   1.587       .  S
C976        C988   1.585       .  S
C976       C1031   1.586       .  S
C976       C1101   1.566       .  S
C977        C978   1.419       .  A
C977        C982   1.412       .  A
C977        H984   1.076       .  S
C978        C979   1.411       .  A
C979        C980   1.393       .  A
C979       Br986   1.926       .  S
C980        C981   1.421       .  A
C980        H985   1.080       .  S
C981        C982   1.434       .  A
C982       Br983   1.917       .  S
C987        C988   1.420       .  A
C987        C992   1.403       .  A
C987        H994   1.077   1_655  S
C988        C989   1.433       .  A
C989        C990   1.401       .  A
C989       Br996   1.915       .  S
C990        C991   1.396       .  A
C990        H995   1.084       .  S
C991        C992   1.410       .  A
C992       Br993   1.921   1_655  S
C997        C998   1.420       .  A
C997       C1002   1.393       .  A
C997       H1004   1.080       .  S
C998        C999   1.428       .  A
C999       C1000   1.404       .  A
C999      Br1006   1.921       .  S
C1000      C1001   1.399       .  A
C1000      H1005   1.084       .  S
C1001      C1002   1.400       .  A
C1002     Br1003   1.917       .  S
C1007      C1008   1.417       .  A
C1007      C1012   1.405       .  A
C1007      H1014   1.077       .  S
C1009      C1010   1.394       .  A
C1009     Br1016   1.924       .  S
C1010      C1011   1.412       .  A
C1010      H1015   1.078       .  S
C1012     Br1013   1.930       .  S
C1017      C1018   1.419       .  A
C1017      C1022   1.385       .  A
C1017      H1024   1.071       .  S
C1018      C1019   1.428       .  A
C1019      C1020   1.409       .  A
C1019     Br1026   1.922       .  S
C1020      C1021   1.406       .  A
C1020      H1025   1.082       .  S
C1021      C1022   1.403       .  A
C1022     Br1023   1.928       .  S
C1027      C1028   1.412       .  A
C1027      C1032   1.409   1_455  A
C1027      H1034   1.081       .  S
C1029      C1030   1.398       .  A
C1029     Br1036   1.929       .  S
C1030      C1031   1.414       .  A
C1030      H1035   1.076       .  S
C1032     Br1033   1.927       .  S
C1037      C1038   1.424   1_655  A
C1037      C1042   1.409       .  A
C1037      H1044   1.081       .  S
C1038      C1039   1.425       .  A
C1039      C1040   1.396       .  A
C1039     Br1046   1.898       .  S
C1040      C1041   1.396       .  A
C1040      H1045   1.084       .  S
C1041      C1042   1.409   1_455  A
C1042     Br1043   1.917       .  S
C1047      C1048   1.412       .  A
C1047      C1052   1.413       .  A
C1047      H1054   1.080       .  S
C1048      C1049   1.427       .  A
C1049      C1050   1.399       .  A
C1049     Br1056   1.926       .  S
C1050      C1051   1.418       .  A
C1050      H1055   1.081       .  S
C1051      C1052   1.436       .  A
C1052     Br1053   1.915   1_565  S
C1057      C1058   1.421   1_655  A
C1057      C1062   1.400       .  A
C1057      H1064   1.073       .  S
C1058      C1059   1.430       .  A
C1059      C1060   1.397       .  A
C1059     Br1066   1.899       .  S
C1060      C1061   1.396       .  A
C1060      H1065   1.084       .  S
C1061      C1062   1.407   1_455  A
C1062     Br1063   1.921       .  S
C1067      C1068   1.393       .  A
C1067      C1072   1.400       .  A
C1067      H1074   1.082       .  S
C1068      C1069   1.403       .  A
C1069      C1070   1.404       .  A
C1069     Br1076   1.920       .  S
C1070      C1071   1.423       .  A
C1070      H1075   1.077       .  S
C1071      C1072   1.437       .  A
C1072     Br1073   1.923       .  S
C1077      C1078   1.419       .  A
C1077      H1084   1.080       .  S
C1078      C1079   1.424       .  A
C1079     Br1086   1.927       .  S
C1080      C1081   1.413   1_554  A
C1080      H1085   1.075       .  S
C1081      C1082   1.425       .  A
C1082     Br1083   1.920       .  S
C1087      C1088   1.399   1_655  A
C1087      C1092   1.399       .  A
C1087      H1094   1.083       .  S
C1088      C1089   1.406       .  A
C1089      C1090   1.394       .  A
C1089     Br1096   1.923       .  S
C1090      C1091   1.411       .  A
C1090      H1095   1.073       .  S
C1091      C1092   1.431   1_455  A
C1092     Br1093   1.924       .  S
C1097      H1104   1.083   1_655  S
C1098      C1099   1.411       .  A
C1099      C1100   1.399       .  A
C1099     Br1106   1.922       .  S
C1100      C1101   1.416       .  A
C1100      H1105   1.075       .  S
C1101      C1102   1.431       .  A
C1107      C1108   1.398       .  A
C1107      C1112   1.404       .  A
C1108      C1109   1.397       .  A
C1109      C1110   1.395       .  A
C1109     Br1116   1.921       .  S
C1110      C1111   1.424       .  A
C1110      H1115   1.077       .  S
C1111      C1112   1.432       .  A
C1117      C1118   1.386       .  A
C1117      C1122   1.385       .  A
C1117      H1124   1.085       .  S
C1118      C1119   1.409       .  A
C1119      C1120   1.412       .  A
C1119     Br1126   1.916       .  S
C1120      C1121   1.425       .  A
C1120      H1125   1.082       .  S
C1121      C1122   1.440       .  A
C1122     Br1123   1.911       .  S
C1127      C1132   1.397   1_565  A
C1127      H1134   1.084       .  S
C1128      C1129   1.396       .  A
C1129      C1130   1.392       .  A
C1129     Br1136   1.912       .  S
C1130      C1131   1.413       .  A
C1130      H1135   1.081       .  S
C1132     Br1133   1.922   1_545  S
C1137      C1138   1.392       .  A
C1137      C1142   1.398       .  A
C1137      H1144   1.085       .  S
C1138      C1139   1.396       .  A
C1139      C1140   1.399       .  A
C1139     Br1146   1.920   1_565  S
C1140      C1141   1.429       .  A
C1140      H1145   1.076       .  S
C1141      C1142   1.430       .  A
C1142     Br1143   1.905       .  S
C1147      C1148   1.418       .  A
C1147      C1152   1.398       .  A
C1147      H1154   1.074       .  S
C1148      C1149   1.433       .  A
C1149      C1150   1.395       .  A
C1149     Br1156   1.925   1_655  S
C1150      C1151   1.399       .  A
C1150      H1155   1.083   1_655  S
C1151      C1152   1.409       .  A
C1152     Br1153   1.924       .  S
C1157      C1158   1.407       .  A
C1157      C1162   1.393   1_455  A
C1157      H1164   1.078       .  S
C1159      C1160   1.399   1_455  A
C1159     Br1166   1.922       .  S
C1160      C1161   1.410       .  A
C1160      H1165   1.078       .  S
C1162     Br1163   1.924       .  S
C1167      C1168   1.414       .  A
C1167      C1172   1.390   1_655  A
C1167      H1174   1.077   1_655  S
C1168      C1169   1.431       .  A
C1169      C1170   1.393       .  A
C1169     Br1176   1.921       .  S
C1170      C1171   1.396       .  A
C1170      H1175   1.084       .  S
C1171      C1172   1.407   1_655  A
C1172     Br1173   1.924       .  S
C1177      C1178   1.393       .  A
C1177      C1182   1.398       .  A
C1177      H1184   1.084       .  S
C1178      C1179   1.399       .  A
C1179      C1180   1.398       .  A
C1179     Br1186   1.921       .  S
C1180      C1181   1.423       .  A
C1180      H1185   1.075       .  S
C1181      C1182   1.436       .  A
C1182     Br1183   1.924       .  S
C1187      C1188   1.421       .  A
C1187      C1192   1.404       .  A
C1187      H1194   1.078       .  S
C1189      C1190   1.397       .  A
C1189     Br1196   1.901       .  S
C1190      C1191   1.409       .  A
C1190      H1195   1.077       .  S
C1192     Br1193   1.924       .  S
C1197      C1198   1.417       .  A
C1197      C1202   1.389       .  A
C1197      H1204   1.073   1_556  S
C1198      C1199   1.430       .  A
C1199      C1200   1.406       .  A
C1199     Br1206   1.921       .  S
C1200      C1201   1.404       .  A
C1200      H1205   1.083       .  S
C1201      C1202   1.406       .  A
C1202     Br1203   1.926   1_556  S
C1207      C1212   1.389       .  A
C1207      H1214   1.077       .  S
C1208      C1209   1.424       .  A
C1209      C1210   1.407       .  A
C1209     Br1216   1.923       .  S
C1210      H1215   1.080       .  S
C1211      C1212   1.422       .  A
C1212     Br1213   1.928       .  S
