geometry optimzed in LAMMPS
_audit_creation_date              2020-11-30 
_audit_creation_method            'lammps2cif' 
_symmetry_space_group_name_H-M    'P1' 
_symmetry_Int_Tables_number       1 
_symmetry_cell_setting            triclinic 
loop_ 
_symmetry_equiv_pos_as_xyz 
  x,y,z 
_cell_length_a                    52.34982225 
_cell_length_b                    52.179660540042136 
_cell_length_c                    50.470001579937595 
_cell_angle_alpha                 89.82526771845617 
_cell_angle_beta                  90.08177156951717 
_cell_angle_gamma                 120.97309163032115 
loop_ 
_atom_site_label 
_atom_site_type_symbol 
_atom_site_fract_x 
_atom_site_fract_y 
_atom_site_fract_z 
_atom_site_charge 
C1          C  0.04553538  0.08534355  0.63717506     0.79100
N2          N  0.02297324  0.08607446  0.64993936    -0.79200
C3          C  0.02319180  0.08825917  0.67668558     0.81500
N4          N  0.04567350  0.08926136  0.69058048    -0.79200
C5          C  0.06799618  0.08799203  0.67849450     0.81600
N6          N  0.06792211  0.08589570  0.65160830    -0.80900
C7          C  0.04122618  0.37310933  0.63624368     0.79100
N8          N  0.06145543  0.39762740  0.65018332    -0.79200
C9          C  0.06276123  0.39619192  0.67691957     0.81500
N10         N  0.04371432  0.37060023  0.68954964    -0.79200
C11         C  0.02313993  0.34621876  0.67636785     0.81600
N12         N  0.02168817  0.34741685  0.64949756    -0.80900
C13         C  0.44783456  0.45772214  0.81311068     0.79100
N14         N  0.43638469  0.42761049  0.81346402    -0.79200
C15         C  0.45464372  0.41616338  0.81367022     0.81500
N16         N  0.48452954  0.43502558  0.81362362    -0.79200
C17         C  0.99410764  0.45473863  0.81331427     0.81600
N18         N  0.47821617  0.47652928  0.81304941    -0.80900
O19         O  0.34124940  0.05111743  0.78249914    -0.86500
O20         O  0.39672724  0.09831953  0.77215592    -0.83500
C21         C  0.40287035  0.11009580  0.79487441     0.97000
O22         O  0.41056081  0.09895568  0.81317497    -0.83600
O23         O  0.41176695  0.05491704  0.84283375    -0.86200
C24         C  0.38674948  0.03945440  0.85411652     1.01500
O25         O  0.36381248  0.02276104  0.84075636    -0.79000
O26         O  0.32559844  0.00614399  0.79841247    -0.79100
C27         C  0.32082443  0.02705695  0.79245943     1.01500
O28         O  0.35060845  0.01442101  0.74689367    -0.86500
O29         O  0.40888153  0.05929412  0.74162167    -0.83500
C30         C  0.43546520  0.07817538  0.74750638     0.97000
O31         O  0.44187954  0.08907724  0.77068418    -0.83600
O32         O  0.43801605  0.04217826  0.79899252    -0.86200
C33         C  0.42618843  0.01564164  0.80733661     1.01500
O34         O  0.38702925  0.49493675  0.81337414    -0.79000
O35         O  0.34904132  0.47951999  0.77108884    -0.79100
C36         C  0.33921141  0.48275554  0.74937448     1.01400
Cr37       Cr  0.37539256  0.05486880  0.76308456     1.93700
Cr38       Cr  0.42274051  0.06930533  0.80536800     1.93200
Cr39       Cr  0.36459816  0.00741165  0.80523816     1.39100
O40         O  0.38748307  0.04367533  0.79138358    -1.24200
O41         O  0.36799119  0.21022221  0.78412461    -0.86500
O42         O  0.32185112  0.21830701  0.77193855    -0.83500
C43         C  0.30931612  0.21069665  0.79423619     0.97000
O44         O  0.31985204  0.22837999  0.81353067    -0.81500
O45         O  0.36186503  0.27405528  0.84516245    -0.86200
C46         C  0.37860641  0.26643270  0.85642270     1.01500
O47         O  0.39612649  0.26197228  0.84290715    -0.79000
O48         O  0.41254371  0.24044569  0.80079908    -0.79100
C49         C  0.39152109  0.21418933  0.79486446     1.01500
O50         O  0.40586533  0.25733682  0.74928458    -0.86500
O51         O  0.36185932  0.27096854  0.74332792    -0.83500
C52         C  0.34208359  0.27706157  0.74878172     0.97000
O53         O  0.33062158  0.27174280  0.77184313    -0.83600
O54         O  0.37481401  0.31474221  0.80209640    -0.86200
C55         C  0.40142226  0.33058674  0.80956874     1.01500
O56         O  0.41674727  0.31889357  0.81603507    -0.79000
O57         O  0.43197344  0.29705003  0.77352509    -0.79100
C58         C  0.42883024  0.28253839  0.75270584     1.01400
Cr59       Cr  0.36529765  0.24114878  0.76451409     1.93700
Cr60       Cr  0.34885186  0.27149045  0.80714984     1.93200
Cr61       Cr  0.41145691  0.27845505  0.80721915     1.39100
O62         O  0.37546815  0.26393726  0.79317447    -1.24200
O63         O  0.20701056  0.07342447  0.78190815    -0.86500
O64         O  0.19680127  0.01803581  0.77073724    -0.83500
C65         C  0.20364528  0.01257158  0.79316707     0.97000
O66         O  0.18546888  0.00484567  0.81216629    -0.83600
O67         O  0.14137039  0.00369886  0.84359771    -0.86200
C68         C  0.15198860  0.02918595  0.85413843     1.01500
O69         O  0.15865889  0.05174210  0.84017960    -0.79000
O70         O  0.17842806  0.08920302  0.79764341    -0.79100
C71         C  0.20407079  0.09388244  0.79175973     1.01500
O72         O  0.15971637  0.06423591  0.74759695    -0.86500
O73         O  0.14474042  0.00592416  0.74195336    -0.83500
C74         C  0.12581200  0.48977468  0.75204812     0.97000
O75         O  0.12899254  0.48196672  0.77507572    -0.83600
O76         O  0.09148395  0.49140319  0.80729854    -0.86200
C77         C  0.08593563  0.98886572  0.80954723     1.01500
O78         O  0.09991786  0.01601372  0.81685493    -0.79000
O79         O  0.12105007  0.05131322  0.77288860    -0.79100
C80         C  0.13500556  0.06222179  0.75163658     1.01400
Cr81       Cr  0.17523154  0.03944497  0.76282534     1.93700
Cr82       Cr  0.14286024  0.99222754  0.80584466     1.93200
Cr83       Cr  0.14045893  0.05020898  0.80581429     1.39100
O84         O  0.15264680  0.02726599  0.79160115    -1.24200
C85         C  0.31537678  0.36753827  0.63574800     0.79100
N86         N  0.31590263  0.34491113  0.64897118    -0.79200
C87         C  0.31455542  0.34366121  0.67583887     0.81500
N88         N  0.31318624  0.36518599  0.68926153    -0.79200
C89         C  0.31326462  0.38814883  0.67680361     0.81600
N90         N  0.31450461  0.38946238  0.64984373    -0.80900
C91         C  0.21799950  0.43824149  0.30636911     0.79100
N92         N  0.24115277  0.43844314  0.31918235    -0.79200
C93         C  0.24370488  0.44164001  0.34593920     0.81500
N94         N  0.22292717  0.44403086  0.35953673    -0.79200
C95         C  0.19953003  0.44321486  0.34756467     0.81600
N96         N  0.19689871  0.44013776  0.32078263    -0.80900
C97         C  0.49633673  0.20451822  0.30140503     0.79100
N98         N  0.49806943  0.18301702  0.31547238    -0.79200
C99         C  0.49583634  0.18219524  0.34236026     0.81500
N100        N  0.49205414  0.20282973  0.35486093    -0.79200
C101        C  0.49083637  0.22454167  0.34142175     0.81600
N102        N  0.49328280  0.22561312  0.31459382    -0.80900
C103        C  0.11765398  0.29265664  0.47450727     0.79100
N104        N  0.10446571  0.26278247  0.47167463    -0.79200
C105        C  0.12037051  0.24899981  0.47240833     0.81500
N106        N  0.15078327  0.26584993  0.47516801    -0.79200
C107        C  0.16463158  0.29643476  0.47752816     0.81600
N108        N  0.14774020  0.30946245  0.47748569    -0.80900
O109        O  0.48763644  0.35361713  0.43734366    -0.86500
O110        O  0.03931017  0.41882411  0.44920182    -0.83500
C111        C  0.06137264  0.44052544  0.46032974     0.97000
O112        O  0.08377069  0.43880970  0.46705079    -0.83600
O113        O  0.06566799  0.39984424  0.50943392    -0.86200
C114        C  0.05107727  0.37562188  0.52207084     1.01500
O115        O  0.04103379  0.35095472  0.51027497    -0.79000
O116        O  0.48629439  0.34037876  0.47867589    -0.79100
C117        C  0.47568864  0.34815537  0.46000466     1.01500
O118        O  0.04327173  0.35619538  0.40927601    -0.86500
O119        O  0.08260560  0.41587990  0.41666107    -0.83500
C120        C  0.10657517  0.41664599  0.42174366     0.97000
O121        O  0.11033571  0.40773287  0.44382778    -0.83600
O122        O  0.09643714  0.37200655  0.48744478    -0.86200
C123        C  0.08758237  0.34624169  0.47815968     1.01500
O124        O  0.06216519  0.33121938  0.46746896    -0.79000
O125        O  0.01385609  0.32094111  0.43701415    -0.79100
C126        C  0.02541708  0.32898204  0.41419862     1.01400
Cr127      Cr  0.04175463  0.38723758  0.43029759     1.93700
Cr128      Cr  0.08645329  0.40266664  0.47574035     1.93200
Cr129      Cr  0.03002129  0.34032321  0.47231941     1.39100
O130        O  0.05291889  0.37683196  0.45950897    -1.24200
O131        O  0.03709311  0.04138812  0.44868765    -0.86500
O132        O  0.50208656  0.06178525  0.44437005    -0.83500
C133        C  0.49032626  0.05921522  0.46683138     0.97000
O134        O  0.50415156  0.07879064  0.48449100    -0.83600
O135        O  0.04166679  0.10940994  0.51231147    -0.86200
C136        C  0.05245056  0.09507821  0.52297852     1.01500
O137        O  0.06658707  0.08632706  0.50925856    -0.79000
O138        O  0.08229390  0.06665355  0.46518186    -0.79100
C139        C  0.05937133  0.04206970  0.45894345     1.01500
O140        O  0.07928548  0.08945511  0.41571492    -0.86500
O141        O  0.03964585  0.10877289  0.41118180    -0.83500
C142        C  0.02249986  0.11798881  0.41752932     0.97000
O143        O  0.01203287  0.11385013  0.44077727    -0.83600
O144        O  0.06210509  0.15258366  0.46989806    -0.86200
C145        C  0.08819789  0.16351722  0.47924720     1.01500
O146        O  0.09674786  0.14639836  0.48801005    -0.79000
O147        O  0.10819388  0.12556295  0.44283415    -0.79100
C148        C  0.10367344  0.11308655  0.42058610     1.01400
Cr149      Cr  0.03897677  0.07581738  0.43097820     1.93700
Cr150      Cr  0.02929383  0.11001003  0.47493836     1.93200
Cr151      Cr  0.08569081  0.10548587  0.47518644     1.39100
O152        O  0.05139249  0.09708153  0.46047613    -1.24200
O153        O  0.37446542  0.41718377  0.45113984    -0.86500
O154        O  0.36442498  0.36188041  0.43885675    -0.83500
C155        C  0.36961880  0.35471159  0.46124712     0.97000
O156        O  0.35069774  0.34693339  0.47957947    -0.83600
O157        O  0.30397755  0.34290466  0.50868684    -0.86200
C158        C  0.31321219  0.36732428  0.52074938     1.01500
O159        O  0.32024713  0.39084316  0.50805880    -0.79000
O160        O  0.34510327  0.43188232  0.46734895    -0.79100
C161        C  0.37123795  0.43708948  0.46201330     1.01500
O162        O  0.32939503  0.40928540  0.41477837    -0.86500
O163        O  0.31417775  0.35093350  0.40772652    -0.83500
C164        C  0.30678739  0.32430294  0.41265347     0.97000
O165        O  0.31024277  0.31693750  0.43577996    -0.83600
O166        O  0.26595960  0.31807887  0.46366410    -0.86200
C167        C  0.25078152  0.32890895  0.47195284     1.01500
O168        O  0.26365593  0.35610381  0.47963794    -0.79000
O169        O  0.28929499  0.39576282  0.43816626    -0.79100
C170        C  0.30471656  0.40753854  0.41772909     1.01400
Cr171      Cr  0.34354912  0.38369679  0.43038504     1.93700
Cr172      Cr  0.30865488  0.33417845  0.47096039     1.93200
Cr173      Cr  0.30562369  0.39190526  0.47219324     1.39100
O174        O  0.31911629  0.37001317  0.45801478    -1.24200
C175        C  0.21205257  0.20468800  0.30232093     0.79100
N176        N  0.19143060  0.18142115  0.31750951    -0.79200
C177        C  0.19496697  0.18199084  0.34432161     0.81500
N178        N  0.21898391  0.20562199  0.35544315    -0.79200
C179        C  0.23925399  0.22888130  0.34086089     0.81600
N180        N  0.23561941  0.22864343  0.31426516    -0.80900
C181        C  0.38442108  0.04272667  0.96887869     0.79100
N182        N  0.41012632  0.06364199  0.98084710    -0.79200
C183        C  0.41238316  0.06498241  0.00751715     0.81500
N184        N  0.38863123  0.04621659  0.02228444    -0.79200
C185        C  0.36247148  0.02592531  0.01116647     0.81600
N186        N  0.36023608  0.02379174  0.98416627    -0.80900
C187        C  0.38121503  0.26119656  0.97181316     0.79100
N188        N  0.40399498  0.26064661  0.98483817    -0.79200
C189        C  0.40541813  0.26206362  0.01184372     0.81500
N190        N  0.38404836  0.26365429  0.02528286    -0.79200
C191        C  0.36126300  0.26383029  0.01307649     0.81600
N192        N  0.35971141  0.26243540  0.98619197    -0.80900
C193        C  0.29841549  0.13924067  0.15068407     0.79100
N194        N  0.32865256  0.15491645  0.15002312    -0.79200
C195        C  0.34428679  0.14082790  0.14893090     0.81500
N196        N  0.32950177  0.11052009  0.14921756    -0.79200
C197        C  0.29927114  0.09409722  0.15028922     0.81600
N198        N  0.28349534  0.10853004  0.15074806    -0.80900
O199        O  0.03790677  0.24140682  0.11766298    -0.86500
O200        O  0.02670990  0.18583638  0.10438904    -0.83500
C201        C  0.03395592  0.17947513  0.12613443     0.97000
O202        O  0.01751408  0.17396330  0.14609236    -0.83600
O203        O  0.47878633  0.17743391  0.17489880    -0.86200
C204        C  0.98488393  0.19760906  0.18963435     1.01500
O205        O  0.49864849  0.22599687  0.17364929    -0.79000
O206        O  0.00922292  0.25713899  0.13340947    -0.79100
C207        C  0.03497291  0.26156851  0.12828109     1.01500
O208        O  0.50080580  0.24074584  0.08013236    -0.86500
O209        O  0.48917394  0.18397025  0.07384192    -0.83500
C210        C  0.48194181  0.15750707  0.07899844     0.97000
O211        O  0.48425017  0.15005675  0.10237833    -0.83600
O212        O  0.44036583  0.15324396  0.12963239    -0.86200
C213        C  0.42664763  0.16486483  0.13960056     1.01500
O214        O  0.44078892  0.19119265  0.14888728    -0.79000
O215        O  0.46224592  0.22799632  0.10571926    -0.79100
C216        C  0.47577374  0.23823556  0.08409635     1.01400
Cr217      Cr  0.00585817  0.20806196  0.09806226     1.93700
Cr218      Cr  0.48270587  0.16782044  0.13713471     1.93200
Cr219      Cr  0.48110587  0.22599817  0.13888377     1.39100
O220        O  0.49380652  0.20373900  0.12408482    -1.24200
O221        O  0.20069106  0.37581093  0.12196526    -0.86500
O222        O  0.15340671  0.38227432  0.10987759    -0.83500
C223        C  0.14121196  0.37660563  0.13236734     0.97000
O224        O  0.15212485  0.39558933  0.15070047    -0.83600
O225        O  0.19553170  0.44239391  0.18019513    -0.86200
C226        C  0.21200197  0.43449337  0.19157027     1.01500
O227        O  0.22885588  0.42882324  0.17820872    -0.79000
O228        O  0.24618785  0.40779822  0.13541683    -0.79100
C229        C  0.22527816  0.38087286  0.13116206     1.01500
O230        O  0.23733130  0.42263736  0.08585697    -0.86500
O231        O  0.19202676  0.43409507  0.07917975    -0.83500
C232        C  0.17330684  0.44160068  0.08473962     0.97000
O233        O  0.16184079  0.43663376  0.10771816    -0.83600
O234        O  0.20723342  0.48150182  0.13597149    -0.86200
C235        C  0.23342978  0.49747778  0.14450842     1.01500
O236        O  0.24822407  0.48552576  0.15194250    -0.79000
O237        O  0.26114310  0.46412667  0.10806014    -0.79100
C238        C  0.25751946  0.44972593  0.08708919     1.01400
Cr239      Cr  0.19664972  0.40556018  0.10138179     1.93700
Cr240      Cr  0.18112324  0.43823430  0.14269892     1.93200
Cr241      Cr  0.24345004  0.44527728  0.14238172     1.39100
O242        O  0.20707666  0.42963403  0.12917276    -1.24200
O243        O  0.16167939  0.19644889  0.10352621    -0.86500
O244        O  0.20717335  0.25205323  0.11683897    -0.83500
C245        C  0.23001340  0.27215756  0.12853302     0.97000
O246        O  0.25107319  0.26768860  0.13466630    -0.83600
O247        O  0.23036198  0.22618481  0.17528458    -0.86200
C248        C  0.21364896  0.20230651  0.18771691     1.01500
O249        O  0.20039216  0.17768738  0.17551950    -0.79000
O250        O  0.15864313  0.18076639  0.14428198    -0.79100
C251        C  0.14748764  0.18710434  0.12506974     1.01500
O252        O  0.20248167  0.18659636  0.07421392    -0.86500
O253        O  0.24680801  0.24465485  0.08260722    -0.83500
C254        C  0.26936354  0.24250593  0.08693104     0.97000
O255        O  0.27206512  0.23192382  0.10848614    -0.83600
O256        O  0.25486988  0.19270655  0.15032728    -0.86200
C257        C  0.24162794  0.16590016  0.14161987     1.01500
O258        O  0.21616301  0.15452795  0.13129612    -0.79000
O259        O  0.17108920  0.15205348  0.10156705    -0.79100
C260        C  0.18262836  0.15982650  0.07869482     1.01400
Cr261      Cr  0.20539988  0.21898225  0.09659012     1.93700
Cr262      Cr  0.24945967  0.22792473  0.14100658     1.93200
Cr263      Cr  0.18866503  0.16923314  0.13724300     1.39100
O264        O  0.21475206  0.20542720  0.12497690    -1.24200
C265        C  0.16011437  0.04219095  0.96804148     0.79100
N266        N  0.15906733  0.06519229  0.97980944    -0.79200
C267        C  0.15794919  0.06639192  0.00666180     0.81500
N268        N  0.15840085  0.04504661  0.02148686    -0.79200
C269        C  0.16021876  0.02265338  0.01016711     0.81600
N270        N  0.16117086  0.02126190  0.98340749    -0.80900
C271        C  0.14276052  0.08512424  0.04460666    -0.14500
C272        C  0.15860634  0.09134640  0.02074157     0.07700
C273        C  0.17955549  0.12109817  0.01417405    -0.14500
C274        C  0.18650828  0.14395542  0.03249016    -0.14500
C275        C  0.17243963  0.13719709  0.05743897     0.07700
C276        C  0.14953431  0.10777644  0.06272992    -0.14500
H277        H  0.12644357  0.06230303  0.05002897     0.11700
H278        H  0.19223353  0.12631753  0.99596740     0.11700
H279        H  0.20401185  0.16653209  0.02774719     0.11700
H280        H  0.13786647  0.10187522  0.08151587     0.11700
C281        C  0.25639626  0.35577494  0.13290093    -0.14500
C282        C  0.22887728  0.35443144  0.13542224     0.07700
C283        C  0.20310595  0.32619703  0.13906855    -0.14500
C284        C  0.20423218  0.30004185  0.13834554    -0.14500
C285        C  0.23121190  0.30095004  0.13411563     0.07700
C286        C  0.25755988  0.32921908  0.13230344    -0.14500
H287        H  0.27668149  0.37711043  0.12994193     0.11700
H288        H  0.18159704  0.32416755  0.14151166     0.11700
H289        H  0.18355289  0.27878868  0.14016369     0.11700
H290        H  0.27871396  0.33073090  0.12890369     0.11700
C291        C  0.17694889  0.46217426  0.03884811    -0.14500
C292        C  0.16512629  0.45687110  0.06469602     0.07700
C293        C  0.14745668  0.46871652  0.07209054    -0.14500
C294        C  0.14349052  0.48722379  0.05481393    -0.14500
C295        C  0.15686276  0.49412606  0.02964794     0.07700
C296        C  0.18123043  0.99022090  0.02010079    -0.14500
H297        H  0.19055024  0.45320228  0.03255288     0.11700
H298        H  0.13787618  0.46494217  0.09175496     0.11700
H299        H  0.13095118  0.49720722  0.06159764     0.11700
H300        H  0.19132049  0.99470506  0.00060902     0.11700
C301        C  0.07510684  0.17802322  0.15097319    -0.14500
C302        C  0.06150194  0.17832157  0.12702467     0.07700
C303        C  0.07545033  0.17937297  0.10297842    -0.14500
C304        C  0.10293652  0.18152330  0.10271959    -0.14500
C305        C  0.11731591  0.18255061  0.12648486     0.07700
C306        C  0.10293264  0.18006842  0.15070342    -0.14500
H307        H  0.06473818  0.17715316  0.16977335     0.11700
H308        H  0.06541155  0.17917546  0.08413873     0.11700
H309        H  0.11313130  0.18279390  0.08371319     0.11700
H310        H  0.11355412  0.18064105  0.16929659     0.11700
C311        C  0.09011882  0.29403017  0.12887465    -0.14500
C312        C  0.06211294  0.29084139  0.13327318     0.07700
C313        C  0.06069178  0.31606377  0.14069159    -0.14500
C314        C  0.08682567  0.34423097  0.14228880    -0.14500
C315        C  0.11442219  0.34728576  0.13632033     0.07700
C316        C  0.11590727  0.32199292  0.13010605    -0.14500
H317        H  0.09210691  0.27507387  0.12342302     0.11700
H318        H  0.03940601  0.31423283  0.14420064     0.11700
H319        H  0.08535563  0.36372577  0.14668935     0.11700
H320        H  0.13704228  0.32407928  0.12522323     0.11700
C321        C  0.25509713  0.14666917  0.14357805    -0.17600
C322        C  0.28326430  0.15691521  0.15142937    -0.32700
H323        H  0.24169827  0.12358808  0.13709065     0.11500
H324        H  0.29694271  0.18036934  0.15675331     0.12000
C325        C  0.25574205  0.04115948  0.14861602    -0.17600
C326        C  0.28507351  0.06082923  0.15124191    -0.32700
H327        H  0.24081326  0.04959320  0.14565223     0.11500
H328        H  0.29995285  0.05217693  0.15310393     0.12000
C329        C  0.37718238  0.15876871  0.14762031    -0.17600
C330        C  0.39379169  0.14686990  0.14109867    -0.32700
H331        H  0.38796378  0.18262457  0.15143997     0.11500
H332        H  0.38297149  0.12327480  0.13612919     0.12000
C333        C  0.30861873  0.25197643  0.02137815    -0.14500
C334        C  0.33807411  0.26359722  0.03006224     0.07700
C335        C  0.34489863  0.27165201  0.05688968    -0.14500
C336        C  0.32259490  0.26579264  0.07505329    -0.14500
C337        C  0.29297071  0.25248266  0.06680660     0.07700
C338        C  0.28616784  0.24661104  0.03968833    -0.14500
H339        H  0.30268676  0.24551623  0.00088983     0.11700
H340        H  0.36743767  0.28120776  0.06423991     0.11700
H341        H  0.32840277  0.27089373  0.09577193     0.11700
H342        H  0.26331441  0.23624940  0.03296218     0.11700
C343        C  0.44407925  0.24695850  0.01895445    -0.14500
C344        C  0.42845561  0.26056349  0.02794402     0.07700
C345        C  0.43181400  0.26968666  0.05462607    -0.14500
C346        C  0.44805172  0.26320931  0.07236224    -0.14500
C347        C  0.46224940  0.24819079  0.06391083     0.07700
C348        C  0.46111157  0.24099479  0.03686985    -0.14500
H349        H  0.44188507  0.23958406  0.99861704     0.11700
H350        H  0.42065118  0.28074834  0.06229367     0.11700
H351        H  0.44891089  0.26933020  0.09297805     0.11700
H352        H  0.47193222  0.22929010  0.02996343     0.11700
C353        C  0.30231578  0.46434978  0.02397367    -0.14500
C354        C  0.31779149  0.49566527  0.02339485     0.07700
C355        C  0.33751638  0.02333821  0.05349706    -0.14500
C356        C  0.29088616  0.49598939  0.06225308    -0.14500
C357        C  0.27679272  0.46483954  0.06413528     0.07700
C358        C  0.28163897  0.44891237  0.04426559    -0.14500
H359        H  0.30756497  0.45209279  0.00991578     0.11700
H360        H  0.35486229  0.04618095  0.05753950     0.11700
H361        H  0.31776434  0.01967704  0.09123994     0.11700
H362        H  0.27064022  0.42478101  0.04520312     0.11700
C363        C  0.44664696  0.08280252  0.04548463    -0.14500
C364        C  0.43808383  0.08917879  0.02119845     0.07700
C365        C  0.44847641  0.11893965  0.01408939    -0.14500
C366        C  0.46455171  0.14176223  0.03239727    -0.14500
C367        C  0.47042397  0.13491500  0.05784497     0.07700
C368        C  0.46279797  0.10550000  0.06365132    -0.14500
H369        H  0.43872350  0.05988476  0.05126184     0.11700
H370        H  0.44173165  0.12419917  0.99554556     0.11700
H371        H  0.47055488  0.16436886  0.02728418     0.11700
H372        H  0.46753809  0.09964640  0.08288004     0.11700
C373        C  0.19141410  0.17739257  0.25919485    -0.14500
C374        C  0.20963252  0.20416039  0.27298137     0.07700
C375        C  0.22725864  0.23052097  0.25835393    -0.14500
C376        C  0.22771211  0.22998871  0.23072235    -0.14500
C377        C  0.21068573  0.20304431  0.21691163     0.07700
C378        C  0.19202175  0.17681964  0.23142216    -0.14500
H379        H  0.17751234  0.15671231  0.26985508     0.11700
H380        H  0.24128308  0.25162639  0.26827598     0.11700
H381        H  0.24211585  0.25064523  0.22021173     0.11700
H382        H  0.17842553  0.15571473  0.22135527     0.11700
C383        C  0.28482827  0.30707284  0.36723565    -0.14500
C384        C  0.29428242  0.30147156  0.39156856     0.07700
C385        C  0.28993313  0.27299544  0.39640094    -0.14500
C386        C  0.27434740  0.24996945  0.37834498    -0.14500
C387        C  0.26281239  0.25490432  0.35505684     0.07700
C388        C  0.26919525  0.28387380  0.34902899    -0.14500
H389        H  0.28805248  0.32888150  0.36293006     0.11700
H390        H  0.29737382  0.26808168  0.41473388     0.11700
H391        H  0.26971020  0.22776778  0.38334019     0.11700
H392        H  0.26015289  0.28804474  0.33131893     0.11700
C393        C  0.39852044  0.49305083  0.47312951    -0.14500
C394        C  0.39892216  0.46683323  0.46712509     0.07700
C395        C  0.42688105  0.46940494  0.46389423    -0.14500
C396        C  0.45329703  0.49714060  0.46510748    -0.14500
C397        C  0.46068334  0.03212624  0.47180454     0.07700
C398        C  0.43397110  0.03191338  0.46752251    -0.14500
H399        H  0.37748458  0.49203589  0.47563574     0.11700
H400        H  0.42844888  0.44995308  0.45946558     0.11700
H401        H  0.47412079  0.49824189  0.46128471     0.11700
H402        H  0.43463028  0.05268193  0.46371733     0.11700
C403        C  0.12047168  0.12274342  0.37301732    -0.14500
C404        C  0.12723370  0.12644463  0.40026442     0.07700
C405        C  0.15680308  0.14503500  0.40825295    -0.14500
C406        C  0.17895180  0.16106290  0.38963041    -0.14500
C407        C  0.17208247  0.15951434  0.36245680     0.07700
C408        C  0.14276954  0.13936249  0.35418271    -0.14500
H409        H  0.09773324  0.10835215  0.36640193     0.11700
H410        H  0.16272644  0.14789974  0.42906614     0.11700
H411        H  0.20135574  0.17588027  0.39683145     0.11700
H412        H  0.13678851  0.13761331  0.33344400     0.11700
C413        C  0.44691327  0.37149886  0.44710406    -0.14500
C414        C  0.44951288  0.35131115  0.46360547     0.07700
C415        C  0.42675399  0.33419584  0.48197413    -0.14500
C416        C  0.40083392  0.33598144  0.48241453    -0.14500
C417        C  0.39773966  0.35498565  0.46457665     0.07700
C418        C  0.42145820  0.37335982  0.44762018    -0.14500
H419        H  0.46444982  0.38555419  0.43325787     0.11700
H420        H  0.42845499  0.31865638  0.49505455     0.11700
H421        H  0.38282282  0.32167264  0.49574406     0.11700
H422        H  0.42000876  0.38872047  0.43408363     0.11700
C423        C  0.08804440  0.49554530  0.46959845    -0.14500
C424        C  0.06145923  0.46859687  0.46416274     0.07700
C425        C  0.03502437  0.46893021  0.46068597    -0.14500
C426        C  0.03540866  0.49580911  0.46108857    -0.14500
C427        C  0.05874276  0.01380827  0.46272097     0.07700
C428        C  0.08518152  0.01328042  0.46569088    -0.14500
H429        H  0.10873490  0.49591077  0.47248667     0.11700
H430        H  0.01410154  0.44845721  0.45690376     0.11700
H431        H  0.01476490  0.49535087  0.45759181     0.11700
H432        H  0.10659457  0.03387334  0.46617961     0.11700
C433        C  0.10299943  0.21595001  0.46908448    -0.17600
C434        C  0.10922112  0.19656697  0.48064584    -0.32700
H435        H  0.08186432  0.20696897  0.45874911     0.11500
H436        H  0.12984409  0.20501685  0.49167966     0.12000
C437        C  0.19787818  0.31659478  0.47925315    -0.17600
C438        C  0.21755374  0.30831729  0.47266139    -0.32700
H439        H  0.20639512  0.33977788  0.48453432     0.11500
H440        H  0.20894524  0.28534779  0.46656051     0.12000
C441        C  0.10755785  0.33402889  0.48017205    -0.17600
C442        C  0.09854832  0.30584043  0.47319904    -0.32700
H443        H  0.13004783  0.34850000  0.48755610     0.11500
H444        H  0.07571216  0.29127498  0.46663966     0.12000
C445        C  0.01649738  0.15234564  0.35332366    -0.14500
C446        C  0.49989509  0.16125594  0.35902618     0.07700
C447        C  0.48739494  0.15470280  0.38455548    -0.14500
C448        C  0.49605439  0.14104690  0.40325980    -0.14500
C449        C  0.01402379  0.13326990  0.39789569     0.07700
C450        C  0.02280947  0.13581346  0.37122905    -0.14500
H451        H  0.02460842  0.15514571  0.33316229     0.11700
H452        H  0.47181961  0.16142223  0.39050459     0.11700
H453        H  0.48662684  0.13728948  0.42298735     0.11700
H454        H  0.03522826  0.12573557  0.36439265     0.11700
C455        C  0.47706878  0.24066091  0.38237488    -0.14500
C456        C  0.48980860  0.24787469  0.35693612     0.07700
C457        C  0.02833076  0.28955476  0.35229861    -0.14500
C458        C  0.03473443  0.31237040  0.37045174    -0.14500
C459        C  0.01718502  0.30626930  0.39335410     0.07700
C460        C  0.48211150  0.26307224  0.40022691    -0.14500
H461        H  0.46448864  0.21762594  0.38898481     0.11700
H462        H  0.04317943  0.29409045  0.33569343     0.11700
H463        H  0.05415274  0.33431911  0.36724617     0.11700
H464        H  0.47314974  0.25672611  0.42008942     0.11700
C465        C  0.50191899  0.22997506  0.25763582    -0.14500
C466        C  0.49705397  0.20467739  0.27196973     0.07700
C467        C  0.99237377  0.18071496  0.26148291    -0.14500
C468        C  0.98824784  0.17760744  0.23402630    -0.14500
C469        C  0.49419520  0.20362969  0.21588338     0.07700
C470        C  0.50070101  0.22952539  0.22992794    -0.14500
H471        H  0.50639873  0.25010752  0.26784441     0.11700
H472        H  0.98962394  0.16183445  0.27288582     0.11700
H473        H  0.98259308  0.15652859  0.22499404     0.11700
H474        H  0.50412716  0.24924477  0.21953725     0.11700
C475        C  0.27062016  0.44868753  0.38809468    -0.14500
C476        C  0.26601384  0.43887779  0.36161050     0.07700
C477        C  0.27825764  0.42197687  0.35273474    -0.14500
C478        C  0.29260967  0.41297702  0.37076825    -0.14500
C479        C  0.29423623  0.42040451  0.39772654     0.07700
C480        C  0.28408955  0.43910254  0.40603766    -0.14500
H481        H  0.26196364  0.46221508  0.39547179     0.11700
H482        H  0.27496282  0.41405671  0.33250335     0.11700
H483        H  0.30063604  0.39866294  0.36407646     0.11700
H484        H  0.28575463  0.44553231  0.42664474     0.11700
C485        C  0.18261166  0.44861261  0.39198044    -0.14500
C486        C  0.17615502  0.44209414  0.36486142     0.07700
C487        C  0.14676737  0.43063899  0.35609658    -0.14500
C488        C  0.12402929  0.42381909  0.37450888    -0.14500
C489        C  0.13046695  0.42801389  0.40180205     0.07700
C490        C  0.16002138  0.44125807  0.41022209    -0.14500
H491        H  0.20507039  0.45797529  0.39947416     0.11700
H492        H  0.14111055  0.42538294  0.33539089     0.11700
H493        H  0.10125671  0.41363993  0.36761072     0.11700
H494        H  0.16559134  0.44515566  0.43107831     0.11700
C495        C  0.19217417  0.43592494  0.26361007    -0.14500
C496        C  0.21565861  0.43573299  0.27700466     0.07700
C497        C  0.23721907  0.43376701  0.26198134    -0.14500
C498        C  0.23557693  0.43249875  0.23428986    -0.14500
C499        C  0.21245166  0.43336173  0.22093240     0.07700
C500        C  0.19064906  0.43484854  0.23593073    -0.14500
H501        H  0.17511190  0.43732716  0.27447042     0.11700
H502        H  0.25563382  0.43356896  0.27157046     0.11700
H503        H  0.25284559  0.43156478  0.22331655     0.11700
H504        H  0.17250891  0.43549257  0.22625084     0.11700
C505        C  0.31428132  0.34430026  0.59188903    -0.14500
C506        C  0.31569949  0.36808400  0.60625776     0.07700
C507        C  0.31695982  0.39199251  0.59212186    -0.14500
C508        C  0.31672124  0.39203851  0.56436426    -0.14500
C509        C  0.31488899  0.36803483  0.55009740     0.07700
C510        C  0.31375424  0.34422400  0.56418951    -0.14500
H511        H  0.31326712  0.32547633  0.60202493     0.11700
H512        H  0.31802402  0.41066249  0.60248005     0.11700
H513        H  0.31744337  0.41064916  0.55407003     0.11700
H514        H  0.31242484  0.32544512  0.55378532     0.11700
C515        C  0.15837394  0.05847216  0.89513217    -0.14500
C516        C  0.15543391  0.03277574  0.88318004     0.07700
C517        C  0.15488463  0.01053552  0.89927537    -0.14500
C518        C  0.15704057  0.01389127  0.92681486    -0.14500
C519        C  0.15942673  0.03939085  0.93881074     0.07700
C520        C  0.16019883  0.06168235  0.92261258    -0.14500
H521        H  0.15865464  0.07594036  0.88324150     0.11700
H522        H  0.15270491  0.99054602  0.89059648     0.11700
H523        H  0.14641341  0.49622884  0.94132038     0.11700
H524        H  0.16197911  0.08155362  0.93113668     0.11700
C525        C  0.25688389  0.17546434  0.80982959    -0.14500
C526        C  0.28279417  0.18078349  0.79668041     0.07700
C527        C  0.28290415  0.15738132  0.78333322    -0.14500
C528        C  0.25751579  0.12919412  0.78256035    -0.14500
C529        C  0.23106610  0.12372613  0.79476322     0.07700
C530        C  0.23094989  0.14703347  0.80865186    -0.14500
H531        H  0.25639394  0.19344303  0.82001108     0.11700
H532        H  0.30269664  0.16105031  0.77306932     0.11700
H533        H  0.25848990  0.11187228  0.77167711     0.11700
H534        H  0.21084961  0.14337896  0.81825108     0.11700
C535        C  0.35672425  0.26472859  0.90131129    -0.14500
C536        C  0.37842787  0.26358894  0.88587013     0.07700
C537        C  0.40062581  0.26070088  0.89895166    -0.14500
C538        C  0.40141096  0.25956580  0.92672202    -0.14500
C539        C  0.37990589  0.26110367  0.94220031     0.07700
C540        C  0.35738304  0.26339296  0.92903838    -0.14500
H541        H  0.33927323  0.26686306  0.89196657     0.11700
H542        H  0.41778836  0.25984553  0.88772507     0.11700
H543        H  0.41907666  0.25778207  0.93604433     0.11700
H544        H  0.34035507  0.26458098  0.94016459     0.11700
C545        C  0.34437742  0.29653193  0.70257041    -0.14500
C546        C  0.33187583  0.29006591  0.72820420     0.07700
C547        C  0.31038383  0.29747940  0.73450623    -0.14500
C548        C  0.30305951  0.31282371  0.71635509    -0.14500
C549        C  0.31694044  0.32105165  0.69142208     0.07700
C550        C  0.33686470  0.31185600  0.68424702    -0.14500
H551        H  0.36084303  0.29085792  0.69705791     0.11700
H552        H  0.30006574  0.29254102  0.75390883     0.11700
H553        H  0.28753282  0.31959683  0.72232687     0.11700
H554        H  0.34808627  0.31823483  0.66524406     0.11700
C555        C  0.42361331  0.16400319  0.80779635    -0.14500
C556        C  0.39979405  0.13630143  0.79927689     0.07700
C557        C  0.37295013  0.13408366  0.79193417    -0.14500
C558        C  0.37011519  0.15916710  0.79197554    -0.14500
C559        C  0.39432339  0.18746465  0.79883544     0.07700
C560        C  0.42096028  0.18954690  0.80742165    -0.14500
H561        H  0.44461179  0.16616096  0.81338532     0.11700
H562        H  0.35427009  0.11290921  0.78542336     0.11700
H563        H  0.34911042  0.15644990  0.78558486     0.11700
H564        H  0.43996657  0.21096559  0.81290014     0.11700
C565        C  0.26706354  0.99893373  0.80860666    -0.14500
C566        C  0.29085828  0.02346831  0.79542262     0.07700
C567        C  0.28568402  0.04482379  0.78359066    -0.14500
C568        C  0.25747615  0.04124028  0.78378928    -0.14500
C569        C  0.23354366  0.01651701  0.79622204     0.07700
C570        C  0.23857800  0.99564270  0.80924246    -0.14500
H571        H  0.26535888  0.49614526  0.83122381     0.11700
H572        H  0.30329810  0.06406008  0.77330395     0.11700
H573        H  0.25423258  0.05774600  0.77377309     0.11700
H574        H  0.21737105  0.49491706  0.83342334     0.11700
C575        C  0.40832719  0.06379583  0.89745510    -0.14500
C576        C  0.38478004  0.04054071  0.88334725     0.07700
C577        C  0.36010719  0.01819767  0.89751628    -0.14500
C578        C  0.35946944  0.01882817  0.92533733    -0.14500
C579        C  0.38343596  0.04190738  0.93941929     0.07700
C580        C  0.40763110  0.06453363  0.92501214    -0.14500
H581        H  0.42749796  0.08148274  0.88717601     0.11700
H582        H  0.34161759  0.99991031  0.88713480     0.11700
H583        H  0.34052839  0.00106998  0.93577724     0.11700
H584        H  0.42642236  0.08291089  0.93500443     0.11700
C585        C  0.31528631  0.42911962  0.73854104    -0.14500
C586        C  0.32822115  0.45860842  0.72961203     0.07700
C587        C  0.33220125  0.46451471  0.70220617    -0.14500
C588        C  0.32559471  0.44133332  0.68424109    -0.14500
C589        C  0.31455868  0.41205885  0.69359033     0.07700
C590        C  0.30820610  0.40614071  0.72078474    -0.14500
H591        H  0.31141134  0.42390279  0.75948066     0.11700
H592        H  0.34201371  0.48719535  0.69489756     0.11700
H593        H  0.33063612  0.44656743  0.66342921     0.11700
H594        H  0.29907546  0.38378880  0.72871373     0.11700
C595        C  0.44278950  0.38347370  0.81385946    -0.17600
C596        C  0.41373374  0.36325380  0.81089089    -0.32700
H597        H  0.45858711  0.37592439  0.81567603     0.11500
H598        H  0.39814221  0.37095178  0.80819775     0.12000
C599        C  0.02713962  0.46760329  0.81115403    -0.17600
C600        C  0.04837551  0.49522836  0.81880565    -0.32700
H601        H  0.03423169  0.45267506  0.80387574     0.11500
H602        H  0.04315102  0.94641178  0.80798262     0.12000
C603        C  0.42654216  0.46902617  0.81284812    -0.17600
C604        C  0.43491423  0.49775948  0.80802169    -0.32700
H605        H  0.40304097  0.45283188  0.81577507     0.11500
H606        H  0.46910127  0.01731674  0.80532142     0.12000
C607        C  0.46863532  0.30807041  0.68673004    -0.14500
C608        C  0.00131547  0.32059698  0.69251767     0.07700
C609        C  0.00903325  0.31858780  0.71886148    -0.14500
C610        C  0.48223165  0.30908029  0.74059650    -0.14500
C611        C  0.45247239  0.29476219  0.73255762     0.07700
C612        C  0.44572111  0.29323273  0.70541193    -0.14500
H613        H  0.46295018  0.30842514  0.66615132     0.11700
H614        H  0.03191200  0.33180530  0.72555667     0.11700
H615        H  0.48787962  0.30989202  0.76136208     0.11700
H616        H  0.42275042  0.28201267  0.69886697     0.11700
C617        C  0.09015455  0.45091319  0.68736560    -0.14500
C618        C  0.08346184  0.42180128  0.69319736     0.07700
C619        C  0.09293087  0.41601325  0.71730516    -0.14500
C620        C  0.10714352  0.43834744  0.73604841    -0.14500
C621        C  0.11236002  0.46708472  0.73110149     0.07700
C622        C  0.10460111  0.47353929  0.70628623    -0.14500
H623        H  0.08278933  0.45573376  0.66893916     0.11700
H624        H  0.08824764  0.39375770  0.72213037     0.11700
H625        H  0.11344289  0.43283239  0.75471609     0.11700
H626        H  0.10873913  0.49568259  0.70190191     0.11700
C627        C  0.06212413  0.40209078  0.56577724    -0.14500
C628        C  0.04667145  0.37561373  0.55104550     0.07700
C629        C  0.02789985  0.34860781  0.56444619    -0.14500
C630        C  0.02532242  0.34791987  0.59201796    -0.14500
C631        C  0.04160946  0.37420556  0.60687386     0.07700
C632        C  0.05969616  0.40138047  0.59339596    -0.14500
H633        H  0.07672066  0.42323805  0.55604292     0.11700
H634        H  0.01554225  0.32780743  0.55364825     0.11700
H635        H  0.01120682  0.32662725  0.60170869     0.11700
H636        H  0.07246344  0.42211315  0.60420707     0.11700
C637        C  0.09177659  0.09430698  0.72240175    -0.14500
C638        C  0.09031274  0.08670098  0.69547623     0.07700
C639        C  0.10722636  0.07452924  0.68649697    -0.14500
C640        C  0.12344426  0.06800370  0.70462948    -0.14500
C641        C  0.12244964  0.07322825  0.73180527     0.07700
C642        C  0.10734510  0.08729271  0.74038925    -0.14500
H643        H  0.07956836  0.10433505  0.72993578     0.11700
H644        H  0.10655692  0.06851558  0.66588493     0.11700
H645        H  0.13519388  0.05724345  0.69770487     0.11700
H646        H  0.10684128  0.09204915  0.76120778     0.11700
C647        C  0.00507740  0.10288260  0.71567497    -0.14500
C648        C  0.99873505  0.08767057  0.69143688     0.07700
C649        C  0.47651697  0.08020189  0.68479002    -0.14500
C650        C  0.45321435  0.07453990  0.70208244    -0.14500
C651        C  0.45937050  0.08741284  0.72754363     0.07700
C652        C  0.48907716  0.10754531  0.73461616    -0.14500
H653        H  0.02791019  0.11792689  0.72175187     0.11700
H654        H  0.47139765  0.06861134  0.66599210     0.11700
H655        H  0.43050687  0.05900734  0.69602301     0.11700
H656        H  0.49461407  0.11804474  0.75392984     0.11700
C657        C  0.02652653  0.09106162  0.59346566    -0.14500
C658        C  0.04612289  0.08534472  0.60780179     0.07700
C659        C  0.06682139  0.08102690  0.59378747    -0.14500
C660        C  0.06829258  0.08311378  0.56607217    -0.14500
C661        C  0.04936459  0.08993956  0.55194205     0.07700
C662        C  0.02824375  0.09349304  0.56593815    -0.14500
H663        H  0.01027437  0.09449811  0.60352959     0.11700
H664        H  0.08214669  0.07646501  0.60422730     0.11700
H665        H  0.08483172  0.08030617  0.55578244     0.11700
H666        H  0.01322128  0.09857896  0.55561160     0.11700
C667        C  0.04844509  0.59861825  0.63904551     0.79100
N668        N  0.02469633  0.59794788  0.65094432    -0.79200
C669        C  0.02376355  0.59978104  0.67765665     0.81500
N670        N  0.04618551  0.60181473  0.69232705    -0.79200
C671        C  0.06961637  0.60186095  0.68123013     0.81600
N672        N  0.07078976  0.60009233  0.65434400    -0.80900
C673        C  0.03911569  0.86290886  0.63700439     0.79100
N674        N  0.06347974  0.88526965  0.64958986    -0.79200
C675        C  0.06581414  0.88485066  0.67631379     0.81500
N676        N  0.04350651  0.86263048  0.69031695    -0.79200
C677        C  0.01872060  0.84066582  0.67856249     0.81600
N678        N  0.01643615  0.84069328  0.65162866    -0.80900
C679        C  0.45565498  0.96079030  0.81494316     0.79100
N680        N  0.44359089  0.93056141  0.81548352    -0.79200
C681        C  0.46142797  0.91859151  0.81629061     0.81500
N682        N  0.49140081  0.93710281  0.81664248    -0.79200
C683        C  0.00172155  0.96118797  0.81644500     0.81600
N684        N  0.48595273  0.97907342  0.81526143    -0.80900
O685        O  0.32714227  0.54268181  0.77860415    -0.86500
O686        O  0.38322898  0.59027548  0.76941249    -0.83500
C687        C  0.39021783  0.60324770  0.79167292     0.97000
O688        O  0.39708590  0.59219717  0.81069643    -0.83600
O689        O  0.39938679  0.54889729  0.84123895    -0.86200
C690        C  0.37459425  0.53337261  0.85273362     1.01500
O691        O  0.35154135  0.51679751  0.83949459    -0.79000
O692        O  0.31247938  0.49927241  0.79785825    -0.79100
C693        C  0.30711754  0.51931639  0.78993926     1.01500
O694        O  0.33841215  0.50604684  0.74472506    -0.86500
O695        O  0.39675194  0.55132440  0.74020565    -0.83500
C696        C  0.42304048  0.57095571  0.74624157     0.97000
O697        O  0.42869295  0.58241717  0.76914181    -0.83600
O698        O  0.42557617  0.53620690  0.79770559    -0.86200
C699        C  0.41435884  0.50981613  0.80620021     1.01500
O700        O  0.39900934  0.00131641  0.81462078    -0.79000
O701        O  0.36253709  0.98760886  0.77155103    -0.79100
C702        C  0.35190254  0.99122728  0.75050178     1.01400
Cr703      Cr  0.36244554  0.54673559  0.76068186     1.93700
Cr704      Cr  0.40963360  0.56274358  0.80364987     1.93200
Cr705      Cr  0.35183832  0.50055949  0.80429462     1.39100
O706        O  0.37438824  0.53647453  0.78973807    -1.24200
O707        O  0.36741818  0.71212175  0.78190120    -0.86500
O708        O  0.32325172  0.72283348  0.77152052    -0.83500
C709        C  0.31163473  0.71551332  0.79421677     0.97000
O710        O  0.32294284  0.73336770  0.81330212    -0.81500
O711        O  0.36626565  0.77840887  0.84415807    -0.86200
C712        C  0.38071420  0.76812036  0.85545539     1.01500
O713        O  0.39668906  0.76151199  0.84196438    -0.79000
O714        O  0.41205961  0.73951447  0.79933095    -0.79100
C715        C  0.39026850  0.71415949  0.79220846     1.01500
O716        O  0.40669005  0.75923387  0.74774445    -0.86500
O717        O  0.36452995  0.77531037  0.74285054    -0.83500
C718        C  0.34510484  0.78177535  0.74851413     0.97000
O719        O  0.33400666  0.77669680  0.77167572    -0.83600
O720        O  0.38040026  0.81874441  0.80107625    -0.86200
C721        C  0.40673580  0.83326059  0.80954692     1.01500
O722        O  0.42065274  0.82006092  0.81626258    -0.79000
O723        O  0.43464752  0.79734884  0.77327435    -0.79100
C724        C  0.43061141  0.78342696  0.75188267     1.01400
Cr725      Cr  0.36650907  0.74429914  0.76329707     1.93700
Cr726      Cr  0.35277241  0.77594087  0.80650566     1.93200
Cr727      Cr  0.41327026  0.77870672  0.80662370     1.39100
O728        O  0.37787878  0.76659205  0.79224863    -1.24200
O729        O  0.20386085  0.57959980  0.78560872    -0.86500
O730        O  0.18596312  0.52191058  0.77275452    -0.83500
C731        C  0.19306934  0.51477726  0.79422987     0.97000
O732        O  0.17633701  0.50913370  0.81430630    -0.83600
O733        O  0.13637202  0.51365383  0.84842229    -0.86200
C734        C  0.14995654  0.53895526  0.85958729     1.01500
O735        O  0.15845529  0.56246937  0.84630300    -0.79000
O736        O  0.17979989  0.59964997  0.80315503    -0.79100
C737        C  0.20392532  0.60148834  0.79611762     1.01500
O738        O  0.15763824  0.57670533  0.75369059    -0.86500
O739        O  0.13527333  0.51679749  0.74683216    -0.83500
C740        C  0.13722367  0.97947022  0.74769945     0.97000
O741        O  0.14154393  0.97293580  0.77090448    -0.83600
O742        O  0.09980333  0.97674629  0.80085239    -0.86200
C743        C  0.08125720  0.50692217  0.81673795     1.01500
O744        O  0.09895127  0.53327720  0.82471693    -0.79000
O745        O  0.12091172  0.56759637  0.78013853    -0.79100
C746        C  0.13410437  0.57686103  0.75825006     1.01400
Cr747      Cr  0.16893180  0.54797039  0.76720100     1.93700
Cr748      Cr  0.13430095  0.50170784  0.81036254     1.93200
Cr749      Cr  0.14018012  0.56369063  0.81236206     1.39100
O750        O  0.14769469  0.53779002  0.79683123    -1.24200
C751        C  0.32328481  0.87560592  0.63658967     0.79100
N752        N  0.32174893  0.85188625  0.64960546    -0.79200
C753        C  0.31969564  0.85015151  0.67641903     0.81500
N754        N  0.31963984  0.87228493  0.69007257    -0.79200
C755        C  0.32179480  0.89632053  0.67770177     0.81600
N756        N  0.32382872  0.89812353  0.65081120    -0.80900
C757        C  0.21334679  0.93396395  0.30764609     0.79100
N758        N  0.23685887  0.93550930  0.32104633    -0.79200
C759        C  0.23811730  0.93762928  0.34791517     0.81500
N760        N  0.21577259  0.93767583  0.36101771    -0.79200
C761        C  0.19210893  0.93566439  0.34846506     0.81600
N762        N  0.19073689  0.93366050  0.32156103    -0.80900
C763        C  0.49754674  0.70710915  0.30279936     0.79100
N764        N  0.49856234  0.68572399  0.31763556    -0.79200
C765        C  0.49779653  0.68666123  0.34452869     0.81500
N766        N  0.49584492  0.70878688  0.35634294    -0.79200
C767        C  0.49526751  0.73035143  0.34199500     0.81600
N768        N  0.49646047  0.72976406  0.31513896    -0.80900
C769        C  0.13035340  0.80690070  0.48232554     0.79100
N770        N  0.11493741  0.77701562  0.47797161    -0.79200
C771        C  0.12897010  0.76127568  0.47673470     0.81500
N772        N  0.15946099  0.77613932  0.47916554    -0.79200
C773        C  0.17511113  0.80654515  0.48323938     0.81600
N774        N  0.16023610  0.82136891  0.48505588    -0.80900
O775        O  0.49239935  0.86067485  0.43693894    -0.86500
O776        O  0.03241259  0.90956629  0.45046816    -0.83500
C777        C  0.05525296  0.93033645  0.46142864     0.97000
O778        O  0.07684115  0.92702397  0.46792318    -0.83600
O779        O  0.05792069  0.88705662  0.50964209    -0.86200
C780        C  0.04193592  0.86304289  0.52220264     1.01500
O781        O  0.02898429  0.83839770  0.51003300    -0.79000
O782        O  0.49000317  0.84685748  0.47816146    -0.79100
C783        C  0.48036373  0.85553221  0.45947769     1.01500
O784        O  0.03197693  0.84623433  0.40927505    -0.86500
O785        O  0.07362447  0.90510346  0.41691425    -0.83500
C786        C  0.09689897  0.90434571  0.42128342     0.97000
O787        O  0.09986421  0.89347475  0.44257798    -0.83600
O788        O  0.08358844  0.85527790  0.48492827    -0.86200
C789        C  0.07122173  0.82873186  0.47606988     1.01500
O790        O  0.04551716  0.81602570  0.46616011    -0.79000
O791        O  0.00003280  0.81148838  0.43620863    -0.79100
C792        C  0.01236697  0.81942883  0.41362642     1.01400
Cr793      Cr  0.03258946  0.87773705  0.43066888     1.93700
Cr794      Cr  0.07699778  0.88896601  0.47517043     1.93200
Cr795      Cr  0.01712717  0.82925714  0.47189580     1.39100
O796        O  0.04254256  0.86539433  0.45934354    -1.24200
O797        O  0.04081310  0.55107600  0.45152453    -0.86500
O798        O  0.49368305  0.55710794  0.44351762    -0.83500
C799        C  0.48144089  0.55243716  0.46598488     0.97000
O800        O  0.49420498  0.57143530  0.48431526    -0.83600
O801        O  0.04744567  0.62197833  0.51334555    -0.86200
C802        C  0.05792417  0.60767473  0.52461249     1.01500
O803        O  0.07167909  0.59813339  0.51132107    -0.79000
O804        O  0.08604433  0.57602141  0.46792792    -0.79100
C805        C  0.06296945  0.55147926  0.46172329     1.01500
O806        O  0.08325476  0.59779326  0.41751179    -0.86500
O807        O  0.04457157  0.61805797  0.41222574    -0.83500
C808        C  0.02714127  0.62711392  0.41788025     0.97000
O809        O  0.01751715  0.62464730  0.44133628    -0.83600
O810        O  0.06817853  0.66413547  0.47023974    -0.86200
C811        C  0.09428747  0.67477080  0.47956966     1.01500
O812        O  0.10260267  0.65737728  0.48818119    -0.79000
O813        O  0.11302363  0.63436251  0.44387885    -0.79100
C814        C  0.10793563  0.62125358  0.42189525     1.01400
Cr815      Cr  0.04335341  0.58542934  0.43295690     1.93700
Cr816      Cr  0.03487432  0.62160754  0.47585807     1.93200
Cr817      Cr  0.09056891  0.61574799  0.47668730     1.39100
O818        O  0.05640489  0.60766874  0.46192318    -1.24200
O819        O  0.38135251  0.92866333  0.45082820    -0.86500
O820        O  0.37265582  0.87411341  0.43911552    -0.83500
C821        C  0.37786673  0.86666225  0.46140756     0.97000
O822        O  0.35925492  0.85873100  0.47997107    -0.83600
O823        O  0.31207909  0.85285508  0.50942520    -0.86200
C824        C  0.32234991  0.87725097  0.52177173     1.01500
O825        O  0.33009322  0.90102937  0.50925501    -0.79000
O826        O  0.35167906  0.94216336  0.46850745    -0.79100
C827        C  0.37782485  0.94784658  0.46268398     1.01500
O828        O  0.33379602  0.91840029  0.41579491    -0.86500
O829        O  0.32090722  0.86080333  0.40868683    -0.83500
C830        C  0.31444889  0.83445424  0.41371218     0.97000
O831        O  0.31952316  0.82792728  0.43654714    -0.83600
O832        O  0.27486531  0.82807051  0.46407685    -0.86200
C833        C  0.25971139  0.83810156  0.47390111     1.01500
O834        O  0.27241844  0.86486889  0.48274491    -0.79000
O835        O  0.29501002  0.90464771  0.44125398    -0.79100
C836        C  0.30882424  0.91573761  0.41994582     1.01400
Cr837      Cr  0.35029668  0.89444379  0.43076873     1.93700
Cr838      Cr  0.31730131  0.84479697  0.47160170     1.93200
Cr839      Cr  0.31332695  0.90160078  0.47428070     1.39100
O840        O  0.32687934  0.88043403  0.45895534    -1.24200
C841        C  0.21721603  0.71374629  0.30466680     0.79100
N842        N  0.19619169  0.69027671  0.31936858    -0.79200
C843        C  0.19906310  0.69030155  0.34621463     0.81500
N844        N  0.22268171  0.71382220  0.35798079    -0.79200
C845        C  0.24327904  0.73739889  0.34383276     0.81600
N846        N  0.24042730  0.73746546  0.31715970    -0.80900
C847        C  0.37044886  0.53276513  0.96748921     0.79100
N848        N  0.39468760  0.55371589  0.98130581    -0.79200
C849        C  0.39427986  0.55373073  0.00818933     0.81500
N850        N  0.36944314  0.53354377  0.02106376    -0.79200
C851        C  0.34499534  0.51315997  0.00781515     0.81600
N852        N  0.34534907  0.51258446  0.98090943    -0.80900
C853        C  0.37938297  0.76266236  0.97069673     0.79100
N854        N  0.40064252  0.76072276  0.98504025    -0.79200
C855        C  0.40070308  0.76232740  0.01208297     0.81500
N856        N  0.37957653  0.76562096  0.02416313    -0.79200
C857        C  0.35821122  0.76693489  0.01049602     0.81600
N858        N  0.35792439  0.76518170  0.98371623    -0.80900
C859        C  0.28227637  0.62643963  0.15063530     0.79100
N860        N  0.31264483  0.64428643  0.15081477    -0.79200
C861        C  0.33029429  0.63210201  0.15120476     0.81500
N862        N  0.31731149  0.60185066  0.15152431    -0.79200
C863        C  0.28722757  0.58363001  0.15127333     0.81600
N864        N  0.26972651  0.59604998  0.15081525    -0.80900
O865        O  0.04534975  0.75166390  0.11326903    -0.86500
O866        O  0.03003646  0.69413411  0.10405111    -0.83500
C867        C  0.03540496  0.68748568  0.12665634     0.97000
O868        O  0.01659483  0.68020106  0.14518264    -0.83600
O869        O  0.46992652  0.67116751  0.17815337    -0.86200
C870        C  0.98979949  0.70873963  0.18670797     1.01500
O871        O  0.48838752  0.71941573  0.17528874    -0.79000
O872        O  0.02003902  0.77027145  0.13073680    -0.79100
C873        C  0.04455813  0.77299255  0.12401995     1.01500
O874        O  0.48841511  0.73170321  0.08171720    -0.86500
O875        O  0.47148855  0.67278266  0.07655607    -0.83500
C876        C  0.46351803  0.64618669  0.08221296     0.97000
O877        O  0.46755185  0.63943166  0.10542523    -0.83600
O878        O  0.42744469  0.64530852  0.13607976    -0.86200
C879        C  0.41433722  0.65821978  0.14477476     1.01500
O880        O  0.42907786  0.68545383  0.15183445    -0.79000
O881        O  0.45088597  0.72074092  0.10783545    -0.79100
C882        C  0.46417679  0.73064460  0.08608583     1.01400
Cr883      Cr  0.01126804  0.71805737  0.09522529     1.93700
Cr884      Cr  0.47030319  0.65945768  0.14038276     1.93200
Cr885      Cr  0.47019935  0.71869208  0.14073232     1.39100
O886        O  0.48094861  0.69470763  0.12614587    -1.24200
O887        O  0.21008819  0.88806151  0.11947636    -0.86500
O888        O  0.16459660  0.89641266  0.10676729    -0.83500
C889        C  0.15146180  0.88820723  0.12878083     0.97000
O890        O  0.16111484  0.90562076  0.14835645    -0.83600
O891        O  0.20185239  0.95072369  0.18106846    -0.86200
C892        C  0.21717247  0.94165439  0.19271553     1.01500
O893        O  0.23504026  0.93709867  0.17977449    -0.79000
O894        O  0.25405746  0.91737867  0.13744408    -0.79100
C895        C  0.23358853  0.89149139  0.12967994     1.01500
O896        O  0.24957157  0.93675544  0.08664494    -0.86500
O897        O  0.20557693  0.95012210  0.07983297    -0.83500
C898        C  0.18560152  0.95600987  0.08490364     0.97000
O899        O  0.17304081  0.94972427  0.10744532    -0.83600
O900        O  0.21648683  0.99253678  0.13866433    -0.86200
C901        C  0.24271511  0.00805665  0.14729220     1.01500
O902        O  0.25718001  0.99566291  0.15471419    -0.79000
O903        O  0.27350521  0.97577822  0.11188991    -0.79100
C904        C  0.27110040  0.96286923  0.09021326     1.01400
Cr905      Cr  0.20822827  0.91966499  0.10053564     1.93700
Cr906      Cr  0.19016209  0.94893474  0.14295176     1.93200
Cr907      Cr  0.25231224  0.95534421  0.14488752     1.39100
O908        O  0.21707935  0.94143092  0.12973448    -1.24200
O909        O  0.17153580  0.72040412  0.11695629    -0.86500
O910        O  0.22754045  0.76676249  0.10568832    -0.83500
C911        C  0.23545845  0.78069526  0.12746998     0.97000
O912        O  0.24212856  0.76967210  0.14671538    -0.83600
O913        O  0.24175750  0.72570257  0.17847148    -0.86200
C914        C  0.21686917  0.71062677  0.19000725     1.01500
O915        O  0.19369709  0.69365712  0.17698904    -0.79000
O916        O  0.15512335  0.67603943  0.13456736    -0.79100
C917        C  0.15081916  0.69702519  0.12760481     1.01500
O918        O  0.18037417  0.68172025  0.08293660    -0.86500
O919        O  0.23862944  0.72598060  0.07718095    -0.83500
C920        C  0.26525457  0.74510715  0.08262003     0.97000
O921        O  0.27214510  0.75628769  0.10565889    -0.83600
O922        O  0.26714012  0.70994678  0.13599880    -0.86200
C923        C  0.25477569  0.68347708  0.14473569     1.01500
O924        O  0.22766754  0.66995713  0.15218136    -0.79000
O925        O  0.19163466  0.65562331  0.10918399    -0.79100
C926        C  0.18194520  0.65879061  0.08739776     1.01400
Cr927      Cr  0.20545410  0.72281015  0.09816075     1.93700
Cr928      Cr  0.25282721  0.73829782  0.14071643     1.93200
Cr929      Cr  0.19389961  0.67681023  0.14203893     1.39100
O930        O  0.21729015  0.71252292  0.12719145    -1.24200
C931        C  0.16025037  0.54315407  0.97414989     0.79100
N932        N  0.16115271  0.56605585  0.98813640    -0.79200
C933        C  0.15989879  0.56489180  0.01511633     0.81500
N934        N  0.15804402  0.54109282  0.02768698    -0.79200
C935        C  0.15753757  0.51853296  0.01429121     0.81600
N936        N  0.15877868  0.51960662  0.98744667    -0.80900
C937        C  0.17323985  0.61845229  0.02251184    -0.14500
C938        C  0.16130598  0.58898550  0.03173031     0.07700
C939        C  0.15304300  0.58267978  0.05856761    -0.14500
C940        C  0.15864757  0.60537228  0.07618206    -0.14500
C941        C  0.17212458  0.63497925  0.06745760     0.07700
C942        C  0.17848698  0.64136888  0.04032088    -0.14500
H943        H  0.17981429  0.62398710  0.00197303     0.11700
H944        H  0.14323492  0.56019695  0.06636062     0.11700
H945        H  0.15319408  0.59985335  0.09692889     0.11700
H946        H  0.18902272  0.66419315  0.03322837     0.11700
C947        C  0.25286408  0.85895183  0.14905633    -0.14500
C948        C  0.23665925  0.86454942  0.12993457     0.07700
C949        C  0.22109202  0.84275936  0.11041766    -0.14500
C950        C  0.22113520  0.81614275  0.11001242    -0.14500
C951        C  0.23658673  0.80987659  0.12922285     0.07700
C952        C  0.25258460  0.83162686  0.14885577    -0.14500
H953        H  0.26502868  0.87522887  0.16439828     0.11700
H954        H  0.20855866  0.84622204  0.09518279     0.11700
H955        H  0.20851952  0.80014451  0.09459308     0.11700
H956        H  0.26489215  0.82757863  0.16387288     0.11700
C957        C  0.18802138  0.97461724  0.03860586    -0.14500
C958        C  0.17649594  0.96995206  0.06450331     0.07700
C959        C  0.15711274  0.97998085  0.07119609    -0.14500
C960        C  0.15065386  0.99580259  0.05287763    -0.14500
C961        C  0.16316744  0.00162548  0.02740905     0.07700
C962        C  0.17267789  0.48056270  0.02136064    -0.14500
H963        H  0.20290305  0.96695446  0.03288354     0.11700
H964        H  0.14775351  0.97657627  0.09092551     0.11700
H965        H  0.13654250  0.00429582  0.05889941     0.11700
H966        H  0.18329683  0.48567216  0.00208535     0.11700
C967        C  0.06843081  0.66805855  0.14316469    -0.14500
C968        C  0.06471149  0.68995698  0.13040973     0.07700
C969        C  0.08956667  0.71445512  0.11866852    -0.14500
C970        C  0.11726836  0.71682557  0.11878241    -0.14500
C971        C  0.12116157  0.69447675  0.13029764     0.07700
C972        C  0.09647214  0.67016538  0.14289105    -0.14500
H973        H  0.04954161  0.64886469  0.15228739     0.11700
H974        H  0.08745506  0.73179623  0.10887326     0.11700
H975        H  0.13554587  0.73600787  0.10902523     0.11700
H976        H  0.09870186  0.65261902  0.15204912     0.11700
C977        C  0.09820587  0.80734594  0.11407448    -0.14500
C978        C  0.07248547  0.80184294  0.12761156     0.07700
C979        C  0.07354873  0.82451060  0.14351754    -0.14500
C980        C  0.09976392  0.85252114  0.14517130    -0.14500
C981        C  0.12488629  0.85822166  0.13051666     0.07700
C982        C  0.12402530  0.83530486  0.11534628    -0.14500
H983        H  0.09813688  0.79035434  0.10174614     0.11700
H984        H  0.05402937  0.82073886  0.15429368     0.11700
H985        H  0.10002899  0.87000392  0.15690265     0.11700
H986        H  0.14330993  0.83921425  0.10405141     0.11700
C987        C  0.27337339  0.66925147  0.14655594    -0.17600
C988        C  0.26265298  0.63967668  0.15010540    -0.32700
H989        H  0.29718680  0.68399538  0.14373180     0.11500
H990        H  0.23877372  0.62458683  0.15197457     0.12000
C991        C  0.24583695  0.53041384  0.14604064    -0.17600
C992        C  0.27457519  0.55058635  0.15129200    -0.32700
H993        H  0.23073098  0.53836400  0.14172453     0.11500
H994        H  0.28991376  0.54271383  0.15467632     0.12000
C995        C  0.36348404  0.65162840  0.15072948    -0.17600
C996        C  0.38128847  0.64023501  0.14697349    -0.32700
H997        H  0.37330756  0.67562444  0.15257004     0.11500
H998        H  0.37110803  0.61630424  0.14415360     0.12000
C999        C  0.30435306  0.74880931  0.01822555    -0.14500
C1000       C  0.33426663  0.76697924  0.02570520     0.07700
C1001       C  0.34105023  0.78071793  0.05069488    -0.14500
C1002       C  0.31848238  0.77467338  0.06868745    -0.14500
C1003       C  0.28859805  0.75461974  0.06212745     0.07700
C1004       C  0.28162858  0.74254816  0.03638300    -0.14500
H1005       H  0.29862004  0.73773195  0.99916715     0.11700
H1006       H  0.36400277  0.79489046  0.05688189     0.11700
H1007       H  0.32459931  0.78462498  0.08820240     0.11700
H1008       H  0.25873800  0.72721261  0.03068469     0.11700
C1009       C  0.43913039  0.74712647  0.02046082    -0.14500
C1010       C  0.42123253  0.75815723  0.02957636     0.07700
C1011       C  0.42029754  0.76252947  0.05705230    -0.14500
C1012       C  0.43476841  0.75409644  0.07500163    -0.14500
C1013       C  0.45143554  0.74179462  0.06617589     0.07700
C1014       C  0.45437756  0.73921825  0.03869244    -0.14500
H1015       H  0.44039744  0.74353242  0.99950191     0.11700
H1016       H  0.40732276  0.77149477  0.06505387     0.11700
H1017       H  0.43253293  0.75683534  0.09599043     0.11700
H1018       H  0.46728110  0.72984050  0.03142425     0.11700
C1019       C  0.31366236  0.98004111  0.02488998    -0.14500
C1020       C  0.33693039  0.00943964  0.02943536     0.07700
C1021       C  0.31105490  0.51119469  0.04203290    -0.14500
C1022       C  0.31622590  0.00811689  0.07296492    -0.14500
C1023       C  0.29346166  0.97846575  0.06902878     0.07700
C1024       C  0.29204750  0.96460101  0.04462762    -0.14500
H1025       H  0.31273590  0.96879800  0.00659438     0.11700
H1026       H  0.32277774  0.53541181  0.04181021     0.11700
H1027       H  0.28694843  0.50873098  0.07687394     0.11700
H1028       H  0.27447494  0.94177904  0.04093634     0.11700
C1029       C  0.42416601  0.57060530  0.04926217    -0.14500
C1030       C  0.41813136  0.57762781  0.02402710     0.07700
C1031       C  0.42981573  0.60763099  0.01699887    -0.14500
C1032       C  0.44551723  0.63015856  0.03568767    -0.14500
C1033       C  0.44990194  0.62293634  0.06155816     0.07700
C1034       C  0.44001846  0.59303790  0.06782133    -0.14500
H1035       H  0.41511435  0.54751332  0.05511898     0.11700
H1036       H  0.42489888  0.61346247  0.99782990     0.11700
H1037       H  0.45309260  0.65306895  0.03021975     0.11700
H1038       H  0.44331977  0.58678297  0.08744033     0.11700
C1039       C  0.19123415  0.69060582  0.26147799    -0.14500
C1040       C  0.21566646  0.71354270  0.27527119     0.07700
C1041       C  0.23953945  0.73614645  0.26063012    -0.14500
C1042       C  0.23948444  0.73542430  0.23302097    -0.14500
C1043       C  0.21544710  0.71225115  0.21921481     0.07700
C1044       C  0.19106153  0.69005468  0.23369208    -0.14500
H1045       H  0.17245205  0.67289024  0.27211651     0.11700
H1046       H  0.25873924  0.75421725  0.27047495     0.11700
H1047       H  0.25852764  0.75292371  0.22246542     0.11700
H1048       H  0.17223790  0.67182695  0.22357455     0.11700
C1049       C  0.29177672  0.81622790  0.36863839    -0.14500
C1050       C  0.30077167  0.81086737  0.39330632     0.07700
C1051       C  0.29449887  0.78188625  0.39929656    -0.14500
C1052       C  0.27758324  0.75834801  0.38203305    -0.14500
C1053       C  0.26680082  0.76327925  0.35828407     0.07700
C1054       C  0.27497595  0.79254631  0.35115657    -0.14500
H1055       H  0.29644299  0.83837152  0.36343257     0.11700
H1056       H  0.30143717  0.77704630  0.41794575     0.11700
H1057       H  0.27168818  0.73595714  0.38784761     0.11700
H1058       H  0.26667024  0.79678483  0.33300740     0.11700
C1059       C  0.40638792  0.00463678  0.46632743    -0.14500
C1060       C  0.40522756  0.97715837  0.46886093     0.07700
C1061       C  0.43191399  0.97774084  0.47430898    -0.14500
C1062       C  0.45916521  0.00478627  0.47579806    -0.14500
C1063       C  0.45305258  0.52341980  0.47001928     0.07700
C1064       C  0.42540208  0.52114071  0.47458587    -0.14500
H1065       H  0.38634139  0.00497206  0.46176884     0.11700
H1066       H  0.43187378  0.95704647  0.47639137     0.11700
H1067       H  0.47939997  0.00428576  0.47872683     0.11700
H1068       H  0.42447766  0.54113180  0.47794128     0.11700
C1069       C  0.12386778  0.63230469  0.37424103    -0.14500
C1070       C  0.13115885  0.63373171  0.40127202     0.07700
C1071       C  0.16109372  0.64973305  0.40890337    -0.14500
C1072       C  0.18325239  0.66586429  0.39028110    -0.14500
C1073       C  0.17599342  0.66698555  0.36360280     0.07700
C1074       C  0.14619887  0.64901911  0.35546863    -0.14500
H1075       H  0.10081248  0.61993006  0.36792710     0.11700
H1076       H  0.16730315  0.65069881  0.42952877     0.11700
H1077       H  0.20605109  0.67890402  0.39717310     0.11700
H1078       H  0.13994778  0.64937743  0.33506642     0.11700
C1079       C  0.45425733  0.88169534  0.44747971    -0.14500
C1080       C  0.45525805  0.85998611  0.46308083     0.07700
C1081       C  0.43189272  0.84242854  0.48067316    -0.14500
C1082       C  0.40682734  0.84541908  0.48132207    -0.14500
C1083       C  0.40529289  0.86605408  0.46446734     0.07700
C1084       C  0.42953605  0.88473430  0.44819116    -0.14500
H1085       H  0.47241065  0.89595303  0.43422807     0.11700
H1086       H  0.43245794  0.82564742  0.49291264     0.11700
H1087       H  0.38820104  0.83075943  0.49394880     0.11700
H1088       H  0.42899900  0.90114402  0.43537100     0.11700
C1089       C  0.08420708  0.98598871  0.46669545    -0.14500
C1090       C  0.05678567  0.95904646  0.46481550     0.07700
C1091       C  0.03035721  0.95973594  0.46323688    -0.14500
C1092       C  0.03133237  0.98680456  0.46213052    -0.14500
C1093       C  0.06225293  0.52298659  0.46493356     0.07700
C1094       C  0.08844361  0.52256080  0.46996144    -0.14500
H1095       H  0.10487559  0.98597890  0.46772086     0.11700
H1096       H  0.00886000  0.93926933  0.46200429     0.11700
H1097       H  0.01058533  0.98656248  0.46023204     0.11700
H1098       H  0.10942632  0.54316712  0.47310781     0.11700
C1099       C  0.10972683  0.72834101  0.47244927    -0.17600
C1100       C  0.11587443  0.70777267  0.48134692    -0.32700
H1101       H  0.08794700  0.72057087  0.46374722     0.11500
H1102       H  0.13717887  0.71528076  0.49090923     0.12000
C1103       C  0.20813869  0.82508655  0.48511862    -0.17600
C1104       C  0.22682123  0.81733997  0.47500250    -0.32700
H1105       H  0.21744119  0.84752105  0.49305263     0.11500
H1106       H  0.21768689  0.79528989  0.46626917     0.12000
C1107       C  0.08629210  0.81157421  0.47738937    -0.17600
C1108       C  0.11522533  0.82410312  0.48335564    -0.32700
H1109       H  0.07337318  0.78812533  0.47197540     0.11500
H1110       H  0.12840760  0.84775661  0.48798897     0.12000
C1111       C  0.01921474  0.65734195  0.35190654    -0.14500
C1112       C  0.50034433  0.66509383  0.36158093     0.07700
C1113       C  0.48790976  0.65939008  0.38710070    -0.14500
C1114       C  0.49408352  0.64336089  0.40543999    -0.14500
C1115       C  0.01670906  0.63940209  0.39700053     0.07700
C1116       C  0.02819933  0.64413952  0.37108024    -0.14500
H1117       H  0.02961204  0.66241021  0.33253946     0.11700
H1118       H  0.47405999  0.66816974  0.39319501     0.11700
H1119       H  0.48466828  0.64006430  0.42513384     0.11700
H1120       H  0.04482193  0.63857145  0.36587836     0.11700
C1121       C  0.47791537  0.74762082  0.37971428    -0.14500
C1122       C  0.49477428  0.75453679  0.35636188     0.07700
C1123       C  0.01280479  0.78312663  0.34929452    -0.14500
C1124       C  0.01911633  0.80506974  0.36818152    -0.14500
C1125       C  0.00333546  0.79739459  0.39226232     0.07700
C1126       C  0.48239063  0.77014761  0.39723774    -0.14500
H1127       H  0.46234421  0.72457176  0.38505943     0.11700
H1128       H  0.02665669  0.78895399  0.33175918     0.11700
H1129       H  0.03730718  0.82763329  0.36452627     0.11700
H1130       H  0.46995878  0.76395294  0.41563990     0.11700
C1131       C  0.50424214  0.73023525  0.25778100    -0.14500
C1132       C  0.49580522  0.70483864  0.27351831     0.07700
C1133       C  0.99270470  0.68468177  0.25686378    -0.14500
C1134       C  0.99022282  0.68436620  0.22929332    -0.14500
C1135       C  0.48765292  0.69959824  0.21790892     0.07700
C1136       C  0.50036615  0.72767680  0.23027747    -0.14500
H1137       H  0.51360673  0.75208838  0.26677245     0.11700
H1138       H  0.98763387  0.66429041  0.26703186     0.11700
H1139       H  0.98360772  0.66377278  0.21881792     0.11700
H1140       H  0.50686912  0.74766288  0.21875443     0.11700
C1141       C  0.26457153  0.94668704  0.39070917    -0.14500
C1142       C  0.26172663  0.93766730  0.36405645     0.07700
C1143       C  0.27814929  0.92498128  0.35503280    -0.14500
C1144       C  0.29524569  0.91936857  0.37298531    -0.14500
C1145       C  0.29559985  0.92600759  0.40002977     0.07700
C1146       C  0.28092746  0.94052064  0.40853570    -0.14500
H1147       H  0.25271751  0.95709267  0.39825795     0.11700
H1148       H  0.27633526  0.91778730  0.33467140     0.11700
H1149       H  0.30657017  0.90814622  0.36612039     0.11700
H1150       H  0.28134579  0.94625074  0.42920709     0.11700
C1151       C  0.17361173  0.94037339  0.39232535    -0.14500
C1152       C  0.16773125  0.93316671  0.36523601     0.07700
C1153       C  0.13824987  0.91991818  0.35613254    -0.14500
C1154       C  0.11497039  0.91191624  0.37426254    -0.14500
C1155       C  0.12101414  0.91662872  0.40158465     0.07700
C1156       C  0.15052119  0.93177460  0.41030017    -0.14500
H1157       H  0.19611366  0.95125240  0.40002723     0.11700
H1158       H  0.13304700  0.91419316  0.33543225     0.11700
H1159       H  0.09219695  0.90042236  0.36717858     0.11700
H1160       H  0.15569076  0.93623920  0.43118354     0.11700
C1161       C  0.19166748  0.93705185  0.26401392    -0.14500
C1162       C  0.21290281  0.93359072  0.27813042     0.07700
C1163       C  0.23455180  0.93114078  0.26372136    -0.14500
C1164       C  0.23543575  0.93292467  0.23600525    -0.14500
C1165       C  0.21483358  0.93742306  0.22196921     0.07700
C1166       C  0.19270638  0.93907989  0.23631264    -0.14500
H1167       H  0.17462327  0.93895544  0.27437997     0.11700
H1168       H  0.25117195  0.92828785  0.27386329     0.11700
H1169       H  0.25274997  0.93150726  0.22560923     0.11700
H1170       H  0.17637690  0.94236954  0.22614202     0.11700
C1171       C  0.31766107  0.85103355  0.59264389    -0.14500
C1172       C  0.32418696  0.87664218  0.60719659     0.07700
C1173       C  0.33097274  0.90283940  0.59335123    -0.14500
C1174       C  0.33102976  0.90330346  0.56560134    -0.14500
C1175       C  0.32403417  0.87750310  0.55111001     0.07700
C1176       C  0.31748611  0.85143163  0.56498005    -0.14500
H1177       H  0.31219797  0.83041536  0.60261590     0.11700
H1178       H  0.33617329  0.92298393  0.60393839     0.11700
H1179       H  0.33609407  0.92374171  0.55550501     0.11700
H1180       H  0.31197103  0.83116439  0.55444723     0.11700
C1181       C  0.16352553  0.56751201  0.90245155    -0.14500
C1182       C  0.15467816  0.54078674  0.88869991     0.07700
C1183       C  0.14892824  0.51535424  0.90322428    -0.14500
C1184       C  0.15146373  0.51644125  0.93082271    -0.14500
C1185       C  0.15950321  0.54290826  0.94469715     0.07700
C1186       C  0.16574423  0.56851796  0.93015355    -0.14500
H1187       H  0.16804971  0.58750269  0.89185084     0.11700
H1188       H  0.14211026  0.49442788  0.89327648     0.11700
H1189       H  0.15635367  0.99622936  0.93870672     0.11700
H1190       H  0.17209974  0.58928724  0.94017768     0.11700
C1191       C  0.26097171  0.68165274  0.81315622    -0.14500
C1192       C  0.28499994  0.68599718  0.79754549     0.07700
C1193       C  0.28305025  0.66201931  0.78335864    -0.14500
C1194       C  0.25706413  0.63421736  0.78396303    -0.14500
C1195       C  0.23229020  0.63002261  0.79837599     0.07700
C1196       C  0.23453999  0.65380415  0.81334139    -0.14500
H1197       H  0.26220837  0.70003146  0.82419411     0.11700
H1198       H  0.30156568  0.66495212  0.77141339     0.11700
H1199       H  0.25604560  0.61632703  0.77228605     0.11700
H1200       H  0.21574442  0.65103460  0.82470366     0.11700
C1201       C  0.36137163  0.77201517  0.89968822    -0.14500
C1202       C  0.37956479  0.76493379  0.88484765     0.07700
C1203       C  0.39726041  0.75602480  0.89849958    -0.14500
C1204       C  0.39722225  0.75497501  0.92635808    -0.14500
C1205       C  0.37930863  0.76258400  0.94113458     0.07700
C1206       C  0.36119073  0.77079465  0.92733207    -0.14500
H1207       H  0.34743475  0.77892404  0.88994455     0.11700
H1208       H  0.41150718  0.75033200  0.88767547     0.11700
H1209       H  0.41129096  0.74836281  0.93629471     0.11700
H1210       H  0.34709688  0.77687605  0.93789695     0.11700
C1211       C  0.34801423  0.80188488  0.70266184    -0.14500
C1212       C  0.33494865  0.79485852  0.72804127     0.07700
C1213       C  0.31309307  0.80185145  0.73413890    -0.14500
C1214       C  0.30624732  0.81772282  0.71612037    -0.14500
C1215       C  0.32091969  0.82669958  0.69158096     0.07700
C1216       C  0.34094760  0.81762374  0.68449930    -0.14500
H1217       H  0.36471212  0.79647729  0.69728894     0.11700
H1218       H  0.30226117  0.79631173  0.75331942     0.11700
H1219       H  0.29062216  0.82442656  0.72193761     0.11700
H1220       H  0.35274556  0.82458170  0.66578968     0.11700
C1221       C  0.41059945  0.65543156  0.81026868    -0.14500
C1222       C  0.39016668  0.63144032  0.79430227     0.07700
C1223       C  0.36991959  0.63485954  0.77882188    -0.14500
C1224       C  0.37016032  0.66155078  0.77877097    -0.14500
C1225       C  0.39092817  0.68606848  0.79399411     0.07700
C1226       C  0.41118763  0.68278655  0.80990743    -0.14500
H1227       H  0.42656883  0.65332326  0.82229556     0.11700
H1228       H  0.35381073  0.61675868  0.76645712     0.11700
H1229       H  0.35418530  0.66303344  0.76619830     0.11700
H1230       H  0.42734004  0.70121036  0.82192121     0.11700
C1231       C  0.25825230  0.50385108  0.81439352    -0.14500
C1232       C  0.27677199  0.51543416  0.79186702     0.07700
C1233       C  0.26690913  0.52550022  0.77061815    -0.14500
C1234       C  0.23975761  0.52444657  0.77168700    -0.14500
C1235       C  0.22127467  0.51369557  0.79426387     0.07700
C1236       C  0.23085895  0.50327537  0.81570301    -0.14500
H1237       H  0.27035215  0.98216471  0.81798980     0.11700
H1238       H  0.28042580  0.53443430  0.75293695     0.11700
H1239       H  0.23356739  0.53276771  0.75465912     0.11700
H1240       H  0.22034560  0.97630637  0.81888235     0.11700
C1241       C  0.39853201  0.55292715  0.89685425    -0.14500
C1242       C  0.37296624  0.53385912  0.88202867     0.07700
C1243       C  0.34630790  0.51452849  0.89553476    -0.14500
C1244       C  0.34539889  0.51405712  0.92326703    -0.14500
C1245       C  0.37109488  0.53301537  0.93808314     0.07700
C1246       C  0.39760484  0.55253944  0.92449844    -0.14500
H1247       H  0.41942565  0.56806166  0.88709703     0.11700
H1248       H  0.32621539  0.49949196  0.88468897     0.11700
H1249       H  0.32456742  0.49881794  0.93306094     0.11700
H1250       H  0.41783501  0.56747081  0.93520481     0.11700
C1251       C  0.32380452  0.93777554  0.73898310    -0.14500
C1252       C  0.34011889  0.96750422  0.73050834     0.07700
C1253       C  0.34672559  0.97390699  0.70344794    -0.14500
C1254       C  0.33911210  0.95061553  0.68541478    -0.14500
C1255       C  0.32450329  0.92083587  0.69436549     0.07700
C1256       C  0.31579138  0.91469800  0.72109264    -0.14500
H1257       H  0.31803476  0.93241584  0.75969852     0.11700
H1258       H  0.35929054  0.99685222  0.69660500     0.11700
H1259       H  0.34612837  0.95597753  0.66495552     0.11700
H1260       H  0.30401759  0.89198354  0.72856199     0.11700
C1261       C  0.44900520  0.88571576  0.81619686    -0.17600
C1262       C  0.42004299  0.86607044  0.81184567    -0.32700
H1263       H  0.46430757  0.87762096  0.81860182     0.11500
H1264       H  0.40511821  0.87449737  0.80859477     0.12000
C1265       C  0.03480280  0.98102547  0.81595787    -0.17600
C1266       C  0.05294529  0.97020252  0.81147294    -0.32700
H1267       H  0.04430199  0.00491608  0.81848710     0.11500
H1268       H  0.04153742  0.51005344  0.82684109     0.12000
C1269       C  0.43549866  0.97323323  0.81399477    -0.17600
C1270       C  0.44548626  0.00233438  0.80902797    -0.32700
H1271       H  0.41178760  0.95788633  0.81679611     0.11500
H1272       H  0.45834096  0.51356134  0.80420979     0.12000
C1273       C  0.47098479  0.80828759  0.68606692    -0.14500
C1274       C  0.99401473  0.81969392  0.69621032     0.07700
C1275       C  0.00018197  0.81944854  0.72337802    -0.14500
C1276       C  0.48400306  0.80921809  0.74007525    -0.14500
C1277       C  0.45434418  0.79520088  0.73182531     0.07700
C1278       C  0.44785685  0.79360919  0.70459528    -0.14500
H1279       H  0.46554903  0.80870911  0.66542012     0.11700
H1280       H  0.02283831  0.83135298  0.73075384     0.11700
H1281       H  0.48947290  0.81004156  0.76089120     0.11700
H1282       H  0.42496196  0.78255092  0.69786237     0.11700
C1283       C  0.10147345  0.93934132  0.68353289    -0.14500
C1284       C  0.09010711  0.90955138  0.69120613     0.07700
C1285       C  0.09761994  0.90337479  0.71616701    -0.14500
C1286       C  0.11414295  0.92632026  0.73402788    -0.14500
C1287       C  0.12348581  0.95595936  0.72732364     0.07700
C1288       C  0.11801062  0.96245747  0.70154630    -0.14500
H1289       H  0.09572022  0.94458346  0.66446251     0.11700
H1290       H  0.08918518  0.88053495  0.72246997     0.11700
H1291       H  0.11833724  0.92061549  0.75356399     0.11700
H1292       H  0.12524838  0.98518759  0.69574019     0.11700
C1293       C  0.05634802  0.89000193  0.56578201    -0.14500
C1294       C  0.03931023  0.86338787  0.55149545     0.07700
C1295       C  0.02078214  0.83679839  0.56560898    -0.14500
C1296       C  0.01989513  0.83670806  0.59336037    -0.14500
C1297       C  0.03775142  0.86314960  0.60762280     0.07700
C1298       C  0.05569450  0.88984601  0.59348612    -0.14500
H1299       H  0.07077393  0.91087839  0.55558527     0.11700
H1300       H  0.00731919  0.81588881  0.55521752     0.11700
H1301       H  0.00594964  0.81577639  0.60365105     0.11700
H1302       H  0.06955831  0.91068168  0.60386911     0.11700
C1303       C  0.09051185  0.60749948  0.72646199    -0.14500
C1304       C  0.09145653  0.60121768  0.69944154     0.07700
C1305       C  0.10996875  0.59051632  0.69155374    -0.14500
C1306       C  0.12533771  0.58404578  0.71068148    -0.14500
C1307       C  0.12196110  0.58782299  0.73782083     0.07700
C1308       C  0.10520231  0.60045890  0.74542694    -0.14500
H1309       H  0.07701572  0.61640730  0.73326852     0.11700
H1310       H  0.11119537  0.58553313  0.67094183     0.11700
H1311       H  0.13838923  0.57443464  0.70440884     0.11700
H1312       H  0.10276755  0.60412859  0.76616127     0.11700
C1313       C  0.00385800  0.61398783  0.71535795    -0.14500
C1314       C  0.99832184  0.59774307  0.69178909     0.07700
C1315       C  0.46640319  0.57478816  0.68463281    -0.14500
C1316       C  0.44241260  0.56832907  0.70131707    -0.14500
C1317       C  0.44757331  0.58061832  0.72694314     0.07700
C1318       C  0.47696349  0.60085165  0.73487929    -0.14500
H1319       H  0.02635780  0.63100786  0.72074519     0.11700
H1320       H  0.46206032  0.56378437  0.66558931     0.11700
H1321       H  0.41997191  0.55277815  0.69461848     0.11700
H1322       H  0.48173996  0.61091988  0.75436995     0.11700
C1323       C  0.03211443  0.60641325  0.59477194    -0.14500
C1324       C  0.05016910  0.59905009  0.60966411     0.07700
C1325       C  0.07012418  0.59317650  0.59619024    -0.14500
C1326       C  0.07217631  0.59505820  0.56843179    -0.14500
C1327       C  0.05463723  0.60328968  0.55372671     0.07700
C1328       C  0.03443823  0.60866684  0.56725227    -0.14500
H1329       H  0.01655791  0.61119187  0.60441285     0.11700
H1330       H  0.08424051  0.58731463  0.60708476     0.11700
H1331       H  0.08797444  0.59079987  0.55854866     0.11700
H1332       H  0.02050038  0.61492042  0.55655496     0.11700
C1333       C  0.55519106  0.09774490  0.63962867     0.79100
N1334       N  0.53251156  0.09893727  0.65177945    -0.79200
C1335       C  0.53076908  0.09867759  0.67860026     0.81500
N1336       N  0.55142852  0.09691034  0.69308373    -0.79200
C1337       C  0.57379397  0.09515828  0.68166438     0.81600
N1338       N  0.57567800  0.09542089  0.65470554    -0.80900
C1339       C  0.54201941  0.36769492  0.63560453     0.79100
N1340       N  0.56580364  0.39106428  0.64791061    -0.79200
C1341       C  0.56836364  0.39124423  0.67464878     0.81500
N1342       N  0.54687776  0.36861717  0.68899468    -0.79200
C1343       C  0.52266304  0.34567302  0.67743345     0.81600
N1344       N  0.52014755  0.34514877  0.65053116    -0.80900
C1345       C  0.95025056  0.45763981  0.81660065     0.79100
N1346       N  0.93366436  0.42740222  0.81560565    -0.79200
C1347       C  0.94647414  0.41071056  0.81332513     0.81500
N1348       N  0.97659598  0.42445332  0.81210783    -0.79200
C1349       C  0.49669802  0.46513226  0.81331589     0.81600
N1350       N  0.98085590  0.47164596  0.81541745    -0.80900
O1351       O  0.83590479  0.04031168  0.78225610    -0.86500
O1352       O  0.89083570  0.08654852  0.77060400    -0.83500
C1353       C  0.89584608  0.09854069  0.79314672     0.97000
O1354       O  0.90361669  0.08829033  0.81209559    -0.83600
O1355       O  0.90757627  0.04632265  0.84288093    -0.86200
C1356       C  0.88274547  0.03096173  0.85446949     1.01500
O1357       O  0.85962623  0.01455978  0.84121973    -0.79000
O1358       O  0.82049758  0.99597994  0.79957601    -0.79100
C1359       C  0.81594643  0.01708204  0.79361618     1.01500
O1360       O  0.84450754  0.00214163  0.74789450    -0.86500
O1361       O  0.90273127  0.04694599  0.74165582    -0.83500
C1362       C  0.92909427  0.06699678  0.74694161     0.97000
O1363       O  0.93557196  0.07892256  0.76975557    -0.83600
O1364       O  0.93361700  0.03390706  0.79906740    -0.86200
C1365       C  0.92245654  0.00783193  0.80821895     1.01500
O1366       O  0.89559840  0.49951183  0.81697649    -0.79000
O1367       O  0.85732406  0.48288665  0.77467473    -0.79100
C1368       C  0.84681103  0.48579288  0.75321996     1.01400
Cr1369     Cr  0.86948107  0.04312974  0.76280759     1.93700
Cr1370     Cr  0.91733503  0.05993312  0.80496920     1.93200
Cr1371     Cr  0.85991876  0.99774250  0.80628945     1.39100
O1372       O  0.88219551  0.03331196  0.79144905    -1.24200
O1373       O  0.86819066  0.20421014  0.78046020    -0.86500
O1374       O  0.82651484  0.21946747  0.77151097    -0.83500
C1375       C  0.81496906  0.21314138  0.79431605     0.97000
O1376       O  0.82727963  0.23130037  0.81314867    -0.81500
O1377       O  0.87386408  0.27370556  0.84347268    -0.86200
C1378       C  0.88518688  0.26002601  0.85437276     1.01500
O1379       O  0.89916398  0.25107634  0.84071692    -0.79000
O1380       O  0.91327673  0.22968115  0.79725473    -0.79100
C1381       C  0.89044274  0.20505739  0.79096108     1.01500
O1382       O  0.90922895  0.25122885  0.74650480    -0.86500
O1383       O  0.86963849  0.27078132  0.74236458    -0.83500
C1384       C  0.85215899  0.27958904  0.74873007     0.97000
O1385       O  0.84220554  0.27579791  0.77219274    -0.83600
O1386       O  0.89205645  0.31535533  0.80097278    -0.86200
C1387       C  0.91815068  0.32659258  0.81017138     1.01500
O1388       O  0.92821128  0.31017855  0.81737360    -0.79000
O1389       O  0.93926888  0.28763825  0.77291688    -0.79100
C1390       C  0.93404342  0.27444180  0.75094869     1.01400
Cr1391     Cr  0.86952210  0.23822768  0.76250556     1.93700
Cr1392     Cr  0.86047589  0.27302066  0.80631432     1.93200
Cr1393     Cr  0.91721664  0.26894732  0.80593217     1.39100
O1394       O  0.88265111  0.26022190  0.79161489    -1.24200
O1395       O  0.71000801  0.07622833  0.78685981    -0.86500
O1396       O  0.69890521  0.02066409  0.77522944    -0.83500
C1397       C  0.70372044  0.01251186  0.79736213     0.97000
O1398       O  0.68511026  0.00498151  0.81595787    -0.83600
O1399       O  0.64140291  0.00514452  0.84695874    -0.86200
C1400       C  0.65261712  0.03011051  0.85866728     1.01500
O1401       O  0.66073430  0.05367521  0.84562933    -0.79000
O1402       O  0.68244157  0.09279315  0.80338736    -0.79100
C1403       C  0.70779202  0.09705744  0.79685152     1.01500
O1404       O  0.66309234  0.06843003  0.75227618    -0.86500
O1405       O  0.64737633  0.01035813  0.74564566    -0.83500
C1406       C  0.63439293  0.48384020  0.74865617     0.97000
O1407       O  0.63739180  0.47590035  0.77171291    -0.83600
O1408       O  0.59505560  0.47919460  0.80184230    -0.86200
C1409       C  0.58783756  0.99362460  0.81229977     1.01500
O1410       O  0.60240567  0.02027260  0.82088639    -0.79000
O1411       O  0.62494882  0.05655668  0.77793806    -0.79100
C1412       C  0.63853305  0.06676840  0.75640879     1.01400
Cr1413     Cr  0.67796988  0.04293054  0.76733259     1.93700
Cr1414     Cr  0.64343582  0.99463017  0.80898456     1.93200
Cr1415     Cr  0.64364988  0.05399523  0.81082269     1.39100
O1416       O  0.65501960  0.03060176  0.79589678    -1.24200
C1417       C  0.82876026  0.37429971  0.63818373     0.79100
N1418       N  0.82856465  0.35123023  0.65122687    -0.79200
C1419       C  0.82584164  0.34901971  0.67799024     0.81500
N1420       N  0.82366121  0.37001228  0.69155404    -0.79200
C1421       C  0.82441452  0.39342880  0.67929657     0.81600
N1422       N  0.82717515  0.39575167  0.65240514    -0.80900
C1423       C  0.71286696  0.42657268  0.30658398     0.79100
N1424       N  0.73528094  0.42692019  0.32090984    -0.79200
C1425       C  0.73544047  0.42863280  0.34779475     0.81500
N1426       N  0.71309876  0.42962181  0.35997948    -0.79200
C1427       C  0.69052569  0.42898787  0.34655526     0.81600
N1428       N  0.69024390  0.42731183  0.31959887    -0.80900
C1429       C  0.00094331  0.20994880  0.30339334     0.79100
N1430       N  0.00022541  0.18773934  0.31828565    -0.79200
C1431       C  0.00003578  0.18900403  0.34515268     0.81500
N1432       N  0.00061136  0.21247027  0.35698907    -0.79200
C1433       C  0.00194758  0.23496079  0.34258308     0.81600
N1434       N  0.00235703  0.23390181  0.31571391    -0.80900
C1435       C  0.63034996  0.30533696  0.48122528     0.79100
N1436       N  0.61501901  0.27518648  0.47798885    -0.79200
C1437       C  0.62928436  0.25951966  0.47748737     0.81500
N1438       N  0.65981067  0.27467875  0.47969771    -0.79200
C1439       C  0.67545371  0.30522473  0.48275274     0.81600
N1440       N  0.66038246  0.32000324  0.48372882    -0.80900
O1441       O  0.99816191  0.36098032  0.43693185    -0.86500
O1442       O  0.53260434  0.40990359  0.44778716    -0.83500
C1443       C  0.55528073  0.43053267  0.45917954     0.97000
O1444       O  0.57659263  0.42686952  0.46596048    -0.83600
O1445       O  0.55839339  0.38728287  0.50770684    -0.86200
C1446       C  0.54269998  0.36366955  0.52081567     1.01500
O1447       O  0.52935175  0.33872363  0.50917897    -0.79000
O1448       O  0.99641307  0.34741408  0.47823671    -0.79100
C1449       C  0.98462010  0.35286106  0.45886345     1.01500
O1450       O  0.52837266  0.34338300  0.40798270    -0.86500
O1451       O  0.57172893  0.40223583  0.41363632    -0.83500
C1452       C  0.59537357  0.40224116  0.41836516     0.97000
O1453       O  0.59888738  0.39263184  0.44016351    -0.83600
O1454       O  0.58351680  0.35477860  0.48262879    -0.86200
C1455       C  0.57080439  0.32792087  0.47436683     1.01500
O1456       O  0.54464379  0.31509023  0.46524109    -0.79000
O1457       O  0.49769279  0.30985883  0.43635156    -0.79100
C1458       C  0.50918033  0.31668216  0.41339969     1.01400
Cr1459     Cr  0.53099612  0.37637791  0.42895842     1.93700
Cr1460     Cr  0.57659040  0.38851493  0.47298364     1.93200
Cr1461     Cr  0.51637615  0.32882619  0.47132098     1.39100
O1462       O  0.54162871  0.36468458  0.45779167    -1.24200
O1463       O  0.54450638  0.04755445  0.45442095    -0.86500
O1464       O  0.99568250  0.05697528  0.43905449    -0.83500
C1465       C  0.98282766  0.05028661  0.46134019     0.97000
O1466       O  0.99480027  0.06797932  0.48069299    -0.83600
O1467       O  0.55297581  0.12154947  0.51337365    -0.86200
C1468       C  0.56395006  0.10777569  0.52485924     1.01500
O1469       O  0.57719403  0.09765452  0.51155357    -0.79000
O1470       O  0.59055612  0.07364932  0.46860849    -0.79100
C1471       C  0.56733651  0.04863116  0.46381096     1.01500
O1472       O  0.58464328  0.09298369  0.41752440    -0.86500
O1473       O  0.54437881  0.11096996  0.41206808    -0.83500
C1474       C  0.52811906  0.12136187  0.41788190     0.97000
O1475       O  0.52026810  0.12101032  0.44168694    -0.83600
O1476       O  0.57183040  0.16182548  0.46883320    -0.86200
C1477       C  0.59802749  0.17305450  0.47797101     1.01500
O1478       O  0.60701108  0.15605101  0.48630440    -0.79000
O1479       O  0.61543584  0.13081607  0.44239858    -0.79100
C1480       C  0.60933022  0.11690934  0.42076898     1.01400
Cr1481     Cr  0.54519718  0.08034204  0.43445282     1.93700
Cr1482     Cr  0.53896558  0.11963159  0.47601442     1.93200
Cr1483     Cr  0.59463051  0.11370570  0.47611342     1.39100
O1484       O  0.55966707  0.10462234  0.46221871    -1.24200
O1485       O  0.88210088  0.42389384  0.45063976    -0.86500
O1486       O  0.87306519  0.36861080  0.43900686    -0.83500
C1487       C  0.87820682  0.35960382  0.46055805     0.97000
O1488       O  0.86096039  0.35360369  0.48004567    -0.83600
O1489       O  0.81544338  0.34980633  0.51124012    -0.86200
C1490       C  0.82576384  0.37446417  0.52320834     1.01500
O1491       O  0.83239970  0.39783736  0.51044525    -0.79000
O1492       O  0.85330607  0.43806495  0.46898629    -0.79100
C1493       C  0.87910407  0.44380636  0.46177253     1.01500
O1494       O  0.83376465  0.41319319  0.41650426    -0.86500
O1495       O  0.82070519  0.35569305  0.40997117    -0.83500
C1496       C  0.81393342  0.32930603  0.41508468     0.97000
O1497       O  0.81868519  0.32262105  0.43800248    -0.83600
O1498       O  0.77555803  0.32406516  0.46724304    -0.86200
C1499       C  0.76070686  0.33478983  0.47649547     1.01500
O1500       O  0.77392632  0.36169573  0.48494127    -0.79000
O1501       O  0.79579610  0.39992165  0.44279983    -0.79100
C1502       C  0.80869826  0.41022319  0.42099751     1.01400
Cr1503     Cr  0.85061002  0.38936469  0.43143752     1.93700
Cr1504     Cr  0.81852093  0.34051424  0.47322528     1.93200
Cr1505     Cr  0.81495074  0.39772440  0.47561380     1.39100
O1506       O  0.82800888  0.37602003  0.46024104    -1.24200
C1507       C  0.71885793  0.21103329  0.30339842     0.79100
N1508       N  0.69705666  0.18761250  0.31763789    -0.79200
C1509       C  0.69891466  0.18729866  0.34453684     0.81500
N1510       N  0.72224646  0.21047620  0.35687196    -0.79200
C1511       C  0.74362689  0.23404167  0.34324184     0.81600
N1512       N  0.74189639  0.23442993  0.31642594    -0.80900
C1513       C  0.87666303  0.03189096  0.96930668     0.79100
N1514       N  0.90077910  0.05381308  0.98250047    -0.79200
C1515       C  0.90045327  0.05540246  0.00925474     0.81500
N1516       N  0.87585571  0.03573654  0.02268949    -0.79200
C1517       C  0.85137988  0.01428579  0.01017857     0.81600
N1518       N  0.85164475  0.01211548  0.98325218    -0.80900
C1519       C  0.87962991  0.25369034  0.96883419     0.79100
N1520       N  0.90134368  0.25351645  0.98384500    -0.79200
C1521       C  0.90116206  0.25636740  0.01070185     0.81500
N1522       N  0.87936131  0.25911169  0.02204228    -0.79200
C1523       C  0.85758509  0.25874173  0.00758725     0.81600
N1524       N  0.85748949  0.25570026  0.98099088    -0.80900
C1525       C  0.78482275  0.12001438  0.15136614     0.79100
N1526       N  0.81501981  0.13829940  0.15124857    -0.79200
C1527       C  0.83310793  0.12676065  0.15184390     0.81500
N1528       N  0.82077536  0.09657350  0.15256948    -0.79200
C1529       C  0.79072246  0.07796108  0.15258036     0.81600
N1530       N  0.77278550  0.08982020  0.15199507    -0.80900
O1531       O  0.54818627  0.25125344  0.11628547    -0.86500
O1532       O  0.54005177  0.19684901  0.10559527    -0.83500
C1533       C  0.54369521  0.18781591  0.12780230     0.97000
O1534       O  0.52414188  0.17922789  0.14562944    -0.83600
O1535       O  0.97466613  0.17226441  0.17895036    -0.86200
C1536       C  0.49073269  0.20239307  0.18663507     1.01500
O1537       O  0.98934150  0.21980081  0.17605955    -0.79000
O1538       O  0.51858663  0.26571647  0.13184239    -0.79100
C1539       C  0.54455978  0.27091193  0.12690315     1.01500
O1540       O  0.99095255  0.23358062  0.08369160    -0.86500
O1541       O  0.97494756  0.17494870  0.07715658    -0.83500
C1542       C  0.96786502  0.14849302  0.08252533     0.97000
O1543       O  0.97216504  0.14162139  0.10564132    -0.83600
O1544       O  0.93157514  0.14441659  0.13752307    -0.86200
C1545       C  0.91738916  0.15624357  0.14591846     1.01500
O1546       O  0.93077721  0.18367952  0.15231525    -0.79000
O1547       O  0.95160809  0.21922634  0.10830721    -0.79100
C1548       C  0.96570099  0.23041575  0.08713736     1.01400
Cr1549     Cr  0.51766792  0.21721936  0.09616692     1.93700
Cr1550     Cr  0.97472764  0.16078789  0.14103690     1.93200
Cr1551     Cr  0.97113213  0.21817384  0.14142402     1.39100
O1552       O  0.98356520  0.19556929  0.12699279    -1.24200
O1553       O  0.70493992  0.37484215  0.11693813    -0.86500
O1554       O  0.66303306  0.39011514  0.10861100    -0.83500
C1555       C  0.65141006  0.38519425  0.13137715     0.97000
O1556       O  0.66397916  0.40376443  0.14988036    -0.83600
O1557       O  0.71041870  0.44682546  0.17992905    -0.86200
C1558       C  0.72081858  0.43269451  0.19154222     1.01500
O1559       O  0.73450925  0.42291129  0.17840743    -0.79000
O1560       O  0.74919592  0.40011305  0.13542276    -0.79100
C1561       C  0.72721686  0.37566170  0.12737594     1.01500
O1562       O  0.74572061  0.42225600  0.08335248    -0.86500
O1563       O  0.70622800  0.44136895  0.07885106    -0.83500
C1564       C  0.68875846  0.45021316  0.08492702     0.97000
O1565       O  0.67879644  0.44669316  0.10829042    -0.83600
O1566       O  0.72912974  0.48699820  0.13596206    -0.86200
C1567       C  0.75519141  0.49823938  0.14518126     1.01500
O1568       O  0.76463510  0.48167905  0.15368718    -0.79000
O1569       O  0.77614256  0.45786146  0.11031144    -0.79100
C1570       C  0.77066301  0.44517267  0.08804427     1.01400
Cr1571     Cr  0.70607141  0.40902392  0.09935666     1.93700
Cr1572     Cr  0.69728946  0.44498036  0.14242651     1.93200
Cr1573     Cr  0.75334190  0.43986689  0.14335346     1.39100
O1574       O  0.71909591  0.43126330  0.12843955    -1.24200
O1575       O  0.67374116  0.21073018  0.11534267    -0.86500
O1576       O  0.72843669  0.25582165  0.10263456    -0.83500
C1577       C  0.73443530  0.26912214  0.12466260     0.97000
O1578       O  0.74225757  0.25935480  0.14399804    -0.83600
O1579       O  0.74521535  0.21837541  0.17680917    -0.86200
C1580       C  0.72050793  0.20448740  0.18878261     1.01500
O1581       O  0.69704157  0.18735594  0.17619920    -0.79000
O1582       O  0.65731169  0.16735366  0.13493626    -0.79100
C1583       C  0.65358163  0.18859134  0.12764412     1.01500
O1584       O  0.68097042  0.17010307  0.08297493    -0.86500
O1585       O  0.73912558  0.21395017  0.07564609    -0.83500
C1586       C  0.76546426  0.23444978  0.08013676     0.97000
O1587       O  0.77265109  0.24669684  0.10277075    -0.83600
O1588       O  0.76931159  0.20182580  0.13405865    -0.86200
C1589       C  0.75726957  0.17589391  0.14387964     1.01500
O1590       O  0.73047986  0.16260112  0.15220438    -0.79000
O1591       O  0.69261536  0.14507222  0.11017221    -0.79100
C1592       C  0.68244774  0.14729379  0.08825510     1.01400
Cr1593     Cr  0.70652569  0.21179705  0.09646513     1.93700
Cr1594     Cr  0.75460637  0.22956188  0.13847409     1.93200
Cr1595     Cr  0.69611011  0.16828722  0.14213197     1.39100
O1596       O  0.71901916  0.20294409  0.12580597    -1.24200
C1597       C  0.65466277  0.03105292  0.97364824     0.79100
N1598       N  0.65547815  0.05356331  0.98828829    -0.79200
C1599       C  0.65375390  0.05140473  0.01529443     0.81500
N1600       N  0.65134928  0.02699509  0.02709392    -0.79200
C1601       C  0.65107475  0.00500761  0.01300987     0.81600
N1602       N  0.65306671  0.00717025  0.98630596    -0.80900
C1603       C  0.66663346  0.10472120  0.02344661    -0.14500
C1604       C  0.65723631  0.07581342  0.03285944     0.07700
C1605       C  0.65384093  0.07055575  0.06042361    -0.14500
C1606       C  0.66144274  0.09371544  0.07813956    -0.14500
C1607       C  0.67197400  0.12275056  0.06891648     0.07700
C1608       C  0.67375602  0.12803123  0.04140069    -0.14500
H1609       H  0.66951992  0.10953173  0.00241430     0.11700
H1610       H  0.64626566  0.04858043  0.06860830     0.11700
H1611       H  0.65948010  0.08894265  0.09919939     0.11700
H1612       H  0.68189165  0.15037666  0.03385119     0.11700
C1613       C  0.74819515  0.34513029  0.14520621    -0.14500
C1614       C  0.72812332  0.34783848  0.12855731     0.07700
C1615       C  0.70964112  0.32408125  0.11163721    -0.14500
C1616       C  0.71180414  0.29861425  0.11069822    -0.14500
C1617       C  0.73207761  0.29597942  0.12700531     0.07700
C1618       C  0.74988229  0.31915998  0.14468227    -0.14500
H1619       H  0.76265847  0.36311633  0.15845420     0.11700
H1620       H  0.69402842  0.32549211  0.09849583     0.11700
H1621       H  0.69756584  0.28090029  0.09710151     0.11700
H1622       H  0.76563182  0.31755383  0.15746964     0.11700
C1623       C  0.68975374  0.46901507  0.03873739    -0.14500
C1624       C  0.67902926  0.46406782  0.06493980     0.07700
C1625       C  0.65912184  0.47319077  0.07240451    -0.14500
C1626       C  0.65130061  0.48833181  0.05461879    -0.14500
C1627       C  0.66307068  0.49463262  0.02888494     0.07700
C1628       C  0.67324553  0.97339076  0.02071337    -0.14500
H1629       H  0.70497344  0.46199929  0.03241814     0.11700
H1630       H  0.65015233  0.46940717  0.09231436     0.11700
H1631       H  0.63672522  0.49601408  0.06130906     0.11700
H1632       H  0.68569005  0.98130789  0.00237511     0.11700
C1633       C  0.57184564  0.16227622  0.13998639    -0.14500
C1634       C  0.57149995  0.18800923  0.13223078     0.07700
C1635       C  0.59821982  0.21404222  0.12587346    -0.14500
C1636       C  0.62481825  0.21426269  0.12608024    -0.14500
C1637       C  0.62537315  0.18815648  0.13199722     0.07700
C1638       C  0.59873519  0.16227648  0.13971464    -0.14500
H1639       H  0.55123766  0.14188912  0.14482753     0.11700
H1640       H  0.59838772  0.23411175  0.11999726     0.11700
H1641       H  0.64490522  0.23482551  0.12050846     0.11700
H1642       H  0.59849816  0.14190173  0.14442787     0.11700
C1643       C  0.59938488  0.30287189  0.13144767    -0.14500
C1644       C  0.57134095  0.30031704  0.13242288     0.07700
C1645       C  0.56984250  0.32617280  0.13666740    -0.14500
C1646       C  0.59613957  0.35428990  0.13824225    -0.14500
C1647       C  0.62392689  0.35654758  0.13572557     0.07700
C1648       C  0.62532418  0.33066492  0.13291176    -0.14500
H1649       H  0.60137579  0.28342409  0.12853340     0.11700
H1650       H  0.54851281  0.32482165  0.13746132     0.11700
H1651       H  0.59478667  0.37424100  0.13996063     0.11700
H1652       H  0.64660376  0.33208115  0.13073934     0.11700
C1653       C  0.77582918  0.16201430  0.14598346    -0.17600
C1654       C  0.76503962  0.13273225  0.15058975    -0.32700
H1655       H  0.79955076  0.17665057  0.14242874     0.11500
H1656       H  0.74121213  0.11767868  0.15309461     0.12000
C1657       C  0.74956118  0.02536664  0.14698784    -0.17600
C1658       C  0.77821203  0.04508996  0.15280365    -0.32700
H1659       H  0.73485808  0.03366095  0.14204370     0.11500
H1660       H  0.79332558  0.03702815  0.15668767     0.12000
C1661       C  0.86596433  0.14714606  0.15118339    -0.17600
C1662       C  0.88465905  0.13682785  0.14843966    -0.32700
H1663       H  0.87486905  0.17111356  0.15200884     0.11500
H1664       H  0.87552703  0.11288509  0.14661866     0.12000
C1665       C  0.80348727  0.23620232  0.01601221    -0.14500
C1666       C  0.83296818  0.25817728  0.02180185     0.07700
C1667       C  0.83930869  0.27507484  0.04504256    -0.14500
C1668       C  0.81694033  0.26836673  0.06342892    -0.14500
C1669       C  0.78789572  0.24449635  0.05891472     0.07700
C1670       C  0.78102722  0.22931386  0.03453869    -0.14500
H1671       H  0.79827031  0.22270296  0.99831420     0.11700
H1672       H  0.86200300  0.29216622  0.04978478     0.11700
H1673       H  0.82276322  0.28084109  0.08178161     0.11700
H1674       H  0.75869431  0.21103016  0.03041484     0.11700
C1675       C  0.93892554  0.24128165  0.02071046    -0.14500
C1676       C  0.92232730  0.25417232  0.02865233     0.07700
C1677       C  0.92296779  0.26188284  0.05549886    -0.14500
C1678       C  0.93768622  0.25469919  0.07428751    -0.14500
C1679       C  0.95288437  0.24044780  0.06664811     0.07700
C1680       C  0.95439095  0.23468810  0.03965345    -0.14500
H1681       H  0.93879201  0.23503960  0.00024432     0.11700
H1682       H  0.91091945  0.27236074  0.06234278     0.11700
H1683       H  0.93673819  0.25979669  0.09493656     0.11700
H1684       H  0.96618204  0.22370262  0.03346228     0.11700
C1685       C  0.80788084  0.47330617  0.02126924    -0.14500
C1686       C  0.83801704  0.48891869  0.02868971     0.07700
C1687       C  0.82009344  0.01052614  0.04807663    -0.14500
C1688       C  0.82363989  0.47101591  0.07397616    -0.14500
C1689       C  0.79355405  0.45740131  0.06710891     0.07700
C1690       C  0.78573940  0.45743832  0.04039458    -0.14500
H1691       H  0.80138974  0.47511825  0.00128963     0.11700
H1692       H  0.83316162  0.03464354  0.04993147     0.11700
H1693       H  0.79737038  0.00624459  0.08427310     0.11700
H1694       H  0.76253472  0.44689815  0.03467385     0.11700
C1695       C  0.93185224  0.07341804  0.04914471    -0.14500
C1696       C  0.92450845  0.07990248  0.02429159     0.07700
C1697       C  0.93464193  0.10965061  0.01734982    -0.14500
C1698       C  0.94984225  0.13236770  0.03599713    -0.14500
C1699       C  0.95517847  0.12549107  0.06166688     0.07700
C1700       C  0.94714998  0.09600090  0.06763745    -0.14500
H1701       H  0.92400943  0.05051020  0.05486556     0.11700
H1702       H  0.92870842  0.11498062  0.99841601     0.11700
H1703       H  0.95610512  0.15500691  0.03074838     0.11700
H1704       H  0.95134365  0.09006228  0.08705900     0.11700
C1705       C  0.69342380  0.18853629  0.26005600    -0.14500
C1706       C  0.71836246  0.21060714  0.27393826     0.07700
C1707       C  0.74347796  0.23157494  0.25938055    -0.14500
C1708       C  0.74400210  0.22990298  0.23174103    -0.14500
C1709       C  0.71930457  0.20744046  0.21792905     0.07700
C1710       C  0.69383689  0.18707088  0.23237730    -0.14500
H1711       H  0.67367520  0.17211332  0.27058117     0.11700
H1712       H  0.76311106  0.24891362  0.26935857     0.11700
H1713       H  0.76390484  0.24603267  0.22120174     0.11700
H1714       H  0.67443472  0.16947907  0.22233607     0.11700
C1715       C  0.79353221  0.31218008  0.36916491    -0.14500
C1716       C  0.80036714  0.30593843  0.39449743     0.07700
C1717       C  0.79232241  0.27649554  0.40073036    -0.14500
C1718       C  0.77576109  0.25344294  0.38294471    -0.14500
C1719       C  0.76703576  0.25929379  0.35843894     0.07700
C1720       C  0.77704027  0.28896113  0.35117700    -0.14500
H1721       H  0.79970847  0.33473493  0.36372386     0.11700
H1722       H  0.79759389  0.27097025  0.41989007     0.11700
H1723       H  0.76849063  0.23073538  0.38890364     0.11700
H1724       H  0.77040392  0.29395192  0.33243795     0.11700
C1725       C  0.90822074  0.49743411  0.48028364    -0.14500
C1726       C  0.90659037  0.47417587  0.46467399     0.07700
C1727       C  0.93226624  0.48000108  0.45068932    -0.14500
C1728       C  0.95822020  0.50793948  0.45144796    -0.14500
C1729       C  0.95421486  0.02109016  0.46337246     0.07700
C1730       C  0.93065927  0.01546015  0.48058550    -0.14500
H1731       H  0.88895549  0.49375601  0.49143320     0.11700
H1732       H  0.93228864  0.46300735  0.43844074     0.11700
H1733       H  0.97708851  0.51127205  0.43982454     0.11700
H1734       H  0.93305418  0.03264534  0.49408397     0.11700
C1735       C  0.62347128  0.13031232  0.37295833    -0.14500
C1736       C  0.63159968  0.12910915  0.39933224     0.07700
C1737       C  0.66179111  0.14304405  0.40593846    -0.14500
C1738       C  0.68354606  0.15971516  0.38714447    -0.14500
C1739       C  0.67566947  0.16339836  0.36135972     0.07700
C1740       C  0.64545498  0.14753848  0.35402474    -0.14500
H1741       H  0.60019006  0.11974336  0.36750781     0.11700
H1742       H  0.66856367  0.14210021  0.42604156     0.11700
H1743       H  0.70665362  0.17120480  0.39331242     0.11700
H1744       H  0.63876280  0.15005942  0.33433943     0.11700
C1745       C  0.94019150  0.34876152  0.43718842    -0.14500
C1746       C  0.95510306  0.35013711  0.46075846     0.07700
C1747       C  0.94300656  0.35205833  0.48504487    -0.14500
C1748       C  0.91728778  0.35422422  0.48543636    -0.14500
C1749       C  0.90361909  0.35467488  0.46154385     0.07700
C1750       C  0.91493712  0.35108258  0.43756778    -0.14500
H1751       H  0.94861345  0.34682404  0.41816521     0.11700
H1752       H  0.95410242  0.35321291  0.50350731     0.11700
H1753       H  0.90882201  0.35670985  0.50422140     0.11700
H1754       H  0.90454089  0.35060345  0.41885627     0.11700
C1755       C  0.58307475  0.48592222  0.46988616    -0.14500
C1756       C  0.55651883  0.45929426  0.46344347     0.07700
C1757       C  0.53054487  0.46035807  0.45931214    -0.14500
C1758       C  0.53120050  0.48729227  0.46033059    -0.14500
C1759       C  0.56672669  0.02010076  0.46774248     0.07700
C1760       C  0.59298533  0.01895714  0.46958057    -0.14500
H1761       H  0.60345961  0.48580794  0.47318308     0.11700
H1762       H  0.50957853  0.44032579  0.45458314     0.11700
H1763       H  0.51083722  0.48700280  0.45613186     0.11700
H1764       H  0.61453824  0.03937751  0.47003930     0.11700
C1765       C  0.61035854  0.22624626  0.47415312    -0.17600
C1766       C  0.61880512  0.20634098  0.47973037    -0.32700
H1767       H  0.58741723  0.21763380  0.46816226     0.11500
H1768       H  0.64136355  0.21455510  0.48664707     0.12000
C1769       C  0.70872319  0.32377274  0.48463063    -0.17600
C1770       C  0.72748529  0.31468552  0.47728076    -0.32700
H1771       H  0.71819466  0.34690586  0.49067271     0.11500
H1772       H  0.71817089  0.29187879  0.47034388     0.12000
C1773       C  0.58600910  0.31053535  0.47558378    -0.17600
C1774       C  0.61501877  0.32267435  0.48162468    -0.32700
H1775       H  0.57294385  0.28699470  0.47032355     0.11500
H1776       H  0.62832198  0.34640459  0.48613399     0.12000
C1777       C  0.51973231  0.15187342  0.35195408    -0.14500
C1778       C  0.00164854  0.16678945  0.36196373     0.07700
C1779       C  0.99160608  0.16294795  0.38827330    -0.14500
C1780       C  0.99763012  0.14629203  0.40601678    -0.14500
C1781       C  0.51735485  0.13339286  0.39692890     0.07700
C1782       C  0.52842639  0.13799672  0.37082160    -0.14500
H1783       H  0.52984424  0.15686317  0.33246457     0.11700
H1784       H  0.97991717  0.17369573  0.39539798     0.11700
H1785       H  0.99029164  0.14450712  0.42636003     0.11700
H1786       H  0.54465382  0.13199541  0.36530724     0.11700
C1787       C  0.98589430  0.25492516  0.37892574    -0.14500
C1788       C  0.00437072  0.26051512  0.35692503     0.07700
C1789       C  0.50572687  0.27790197  0.34891870    -0.14500
C1790       C  0.51099375  0.30048109  0.36694045    -0.14500
C1791       C  0.50013077  0.29323020  0.39308122     0.07700
C1792       C  0.99215333  0.27758633  0.39691188    -0.14500
H1793       H  0.96739394  0.23258095  0.38285989     0.11700
H1794       H  0.51587404  0.28401532  0.32945916     0.11700
H1795       H  0.52466983  0.32357911  0.36079348     0.11700
H1796       H  0.97794911  0.27234029  0.41412997     0.11700
C1797       C  0.00244915  0.23139150  0.25846352    -0.14500
C1798       C  0.99903200  0.20748613  0.27408522     0.07700
C1799       C  0.49155891  0.17912529  0.25787239    -0.14500
C1800       C  0.48996218  0.17854806  0.23016782    -0.14500
C1801       C  0.99088289  0.20126480  0.21852329     0.07700
C1802       C  0.99852402  0.22835084  0.23102387    -0.14500
H1803       H  0.00774618  0.25238204  0.26745458     0.11700
H1804       H  0.48767015  0.15924207  0.26826378     0.11700
H1805       H  0.48508028  0.15829917  0.21993300     0.11700
H1806       H  0.00087793  0.24709797  0.21966032     0.11700
C1807       C  0.75896618  0.43493310  0.39189696    -0.14500
C1808       C  0.75829259  0.42810922  0.36482604     0.07700
C1809       C  0.77731528  0.41844563  0.35569452    -0.14500
C1810       C  0.79528961  0.41408750  0.37372838    -0.14500
C1811       C  0.79406400  0.41902135  0.40100212     0.07700
C1812       C  0.77631733  0.43015461  0.40970716    -0.14500
H1813       H  0.74512487  0.44298349  0.39972041     0.11700
H1814       H  0.77731219  0.41303141  0.33500264     0.11700
H1815       H  0.80884667  0.40537410  0.36662113     0.11700
H1816       H  0.77527270  0.43448701  0.43053859     0.11700
C1817       C  0.67208057  0.43624311  0.38949176    -0.14500
C1818       C  0.66625663  0.42802639  0.36258891     0.07700
C1819       C  0.63683971  0.41511537  0.35331595    -0.14500
C1820       C  0.61354408  0.40828015  0.37121654    -0.14500
C1821       C  0.61947982  0.41385366  0.39850393     0.07700
C1822       C  0.64900990  0.42883640  0.40723315    -0.14500
H1823       H  0.69452409  0.44693096  0.39732034     0.11700
H1824       H  0.63164458  0.40864097  0.33275653     0.11700
H1825       H  0.59080270  0.39690286  0.36405248     0.11700
H1826       H  0.65420990  0.43397158  0.42803410     0.11700
C1827       C  0.69458159  0.43192401  0.26188752    -0.14500
C1828       C  0.71362608  0.42613098  0.27703161     0.07700
C1829       C  0.73417320  0.42098452  0.26360934    -0.14500
C1830       C  0.73597851  0.42215293  0.23584098    -0.14500
C1831       C  0.71755458  0.42888691  0.22082109     0.07700
C1832       C  0.69664520  0.43345373  0.23420058    -0.14500
H1833       H  0.67848886  0.43599127  0.27143409     0.11700
H1834       H  0.74913559  0.41633043  0.27457322     0.11700
H1835       H  0.75235240  0.41858956  0.22617624     0.11700
H1836       H  0.68197513  0.43852815  0.22323505     0.11700
C1837       C  0.82490725  0.35016393  0.59426545    -0.14500
C1838       C  0.83005958  0.37541549  0.60871967     0.07700
C1839       C  0.83548440  0.40107334  0.59467932    -0.14500
C1840       C  0.83503266  0.40116374  0.56688609    -0.14500
C1841       C  0.82882356  0.37549078  0.55252824     0.07700
C1842       C  0.82416878  0.35015960  0.56658385    -0.14500
H1843       H  0.82067771  0.32998935  0.60434066     0.11700
H1844       H  0.83977358  0.42098917  0.60515562     0.11700
H1845       H  0.83882025  0.42111035  0.55666334     0.11700
H1846       H  0.81949434  0.33006867  0.55618810     0.11700
C1847       C  0.65918432  0.05658968  0.90205738    -0.14500
C1848       C  0.65494393  0.03139732  0.88800464     0.07700
C1849       C  0.65151914  0.00675334  0.90233255    -0.14500
C1850       C  0.65192648  0.00704893  0.92998202    -0.14500
C1851       C  0.65550101  0.03190567  0.94417657     0.07700
C1852       C  0.65930929  0.05678942  0.92986494    -0.14500
H1853       H  0.66174017  0.07591341  0.89155744     0.11700
H1854       H  0.64830017  0.98705700  0.89215698     0.11700
H1855       H  0.64498168  0.48809661  0.94003307     0.11700
H1856       H  0.66216165  0.07629824  0.94010995     0.11700
C1857       C  0.76259174  0.17952717  0.81164325    -0.14500
C1858       C  0.78787202  0.18366986  0.79805756     0.07700
C1859       C  0.78698451  0.15917622  0.78586196    -0.14500
C1860       C  0.76128446  0.13117302  0.78651113    -0.14500
C1861       C  0.73534935  0.12682924  0.79898822     0.07700
C1862       C  0.73626156  0.15122573  0.81185033    -0.14500
H1863       H  0.76285836  0.19826271  0.82108529     0.11700
H1864       H  0.80625775  0.16179321  0.77540406     0.11700
H1865       H  0.76160382  0.11306383  0.77641014     0.11700
H1866       H  0.71662890  0.14853246  0.82164152     0.11700
C1867       C  0.86307745  0.26166880  0.89743712    -0.14500
C1868       C  0.88267564  0.25581730  0.88348378     0.07700
C1869       C  0.90046128  0.24755421  0.89776767    -0.14500
C1870       C  0.89935812  0.24631122  0.92558042    -0.14500
C1871       C  0.88019196  0.25296489  0.93946290     0.07700
C1872       C  0.86176764  0.26015630  0.92495498    -0.14500
H1873       H  0.84892525  0.26789925  0.88708618     0.11700
H1874       H  0.91576520  0.24286770  0.88751412     0.11700
H1875       H  0.91369319  0.24051135  0.93617972     0.11700
H1876       H  0.84670725  0.26543561  0.93485543     0.11700
C1877       C  0.85439461  0.30010608  0.70302372    -0.14500
C1878       C  0.84255569  0.29380343  0.72886388     0.07700
C1879       C  0.82194035  0.30213006  0.73603798    -0.14500
C1880       C  0.81482047  0.31812467  0.71848116    -0.14500
C1881       C  0.82809340  0.32616612  0.69330200     0.07700
C1882       C  0.84712454  0.31613184  0.68530952    -0.14500
H1883       H  0.87012407  0.29369399  0.69686555     0.11700
H1884       H  0.81203118  0.29722142  0.75561510     0.11700
H1885       H  0.79989369  0.32541269  0.72507301     0.11700
H1886       H  0.85780930  0.32226749  0.66607007     0.11700
C1887       C  0.91280430  0.14941609  0.81126509    -0.14500
C1888       C  0.89265600  0.12460488  0.79622067     0.07700
C1889       C  0.87034737  0.12554055  0.78163915    -0.14500
C1890       C  0.86896365  0.15136626  0.78096565    -0.14500
C1891       C  0.89021710  0.17698117  0.79452843     0.07700
C1892       C  0.91177726  0.17567704  0.81020889    -0.14500
H1893       H  0.93014380  0.14898664  0.82263029     0.11700
H1894       H  0.85440230  0.10644204  0.77010740     0.11700
H1895       H  0.85197730  0.15160577  0.76887470     0.11700
H1896       H  0.92820165  0.19510118  0.82108717     0.11700
C1897       C  0.76039214  0.98791430  0.80355850    -0.14500
C1898       C  0.78699251  0.01516550  0.79862281     0.07700
C1899       C  0.78568701  0.04137705  0.79627040    -0.14500
C1900       C  0.75856114  0.04027598  0.79713123    -0.14500
C1901       C  0.73195993  0.01307318  0.80088022     0.07700
C1902       C  0.73297537  0.98690166  0.80473235    -0.14500
H1903       H  0.76334799  0.47917034  0.82059691     0.11700
H1904       H  0.80567455  0.06285910  0.79282763     0.11700
H1905       H  0.75825148  0.06067862  0.79411392     0.11700
H1906       H  0.71430082  0.47571839  0.82160377     0.11700
C1907       C  0.90699512  0.04642302  0.89912219    -0.14500
C1908       C  0.88094013  0.03131462  0.88383341     0.07700
C1909       C  0.85326496  0.01574516  0.89694479    -0.14500
C1910       C  0.85172035  0.01542426  0.92469294    -0.14500
C1911       C  0.87781154  0.03078656  0.93993055     0.07700
C1912       C  0.90544786  0.04618317  0.92677028    -0.14500
H1913       H  0.92867748  0.05835362  0.88973206     0.11700
H1914       H  0.83274628  0.00380088  0.88575197     0.11700
H1915       H  0.83009785  0.00351236  0.93417727     0.11700
H1916       H  0.92604821  0.05808122  0.93785892     0.11700
C1917       C  0.82313532  0.43242432  0.74133709    -0.14500
C1918       C  0.83671371  0.46218699  0.73306425     0.07700
C1919       C  0.84244863  0.46901241  0.70592235    -0.14500
C1920       C  0.83675352  0.44641661  0.68761069    -0.14500
C1921       C  0.82488927  0.41679257  0.69631020     0.07700
C1922       C  0.81692119  0.40998245  0.72317937    -0.14500
H1923       H  0.81807090  0.42659639  0.76208104     0.11700
H1924       H  0.85293347  0.49195967  0.69916949     0.11700
H1925       H  0.84313095  0.45235615  0.66708987     0.11700
H1926       H  0.80718903  0.38734490  0.73057609     0.11700
C1927       C  0.92714353  0.37791769  0.81112236    -0.17600
C1928       C  0.93762641  0.35930130  0.81291219    -0.32700
H1929       H  0.90342775  0.36882805  0.80822879     0.11500
H1930       H  0.96111202  0.36819656  0.81694052     0.12000
C1931       C  0.52996141  0.48498840  0.81351735    -0.17600
C1932       C  0.54805613  0.47359417  0.81099454    -0.32700
H1933       H  0.53959337  0.50892807  0.81543174     0.11500
H1934       H  0.54488493  0.95175939  0.81067487     0.12000
C1935       C  0.93316841  0.47334990  0.81869510    -0.17600
C1936       C  0.94263948  0.50132848  0.81043344    -0.32700
H1937       H  0.91009390  0.45972006  0.82500638     0.11500
H1938       H  0.96606917  0.01098278  0.80646050     0.12000
C1939       C  0.97157124  0.30243539  0.68446397    -0.14500
C1940       C  0.49848665  0.32410296  0.69506117     0.07700
C1941       C  0.50498156  0.32321503  0.72203738    -0.14500
C1942       C  0.98712840  0.30212908  0.73758996    -0.14500
C1943       C  0.95711031  0.28654664  0.73022267     0.07700
C1944       C  0.94952616  0.28525895  0.70327990    -0.14500
H1945       H  0.96503914  0.30348690  0.66431390     0.11700
H1946       H  0.52776691  0.33486419  0.72911038     0.11700
H1947       H  0.99354881  0.30281846  0.75811139     0.11700
H1948       H  0.92640112  0.27299960  0.69716295     0.11700
C1949       C  0.59861269  0.44582164  0.68387535    -0.14500
C1950       C  0.59209775  0.41667753  0.68917409     0.07700
C1951       C  0.60311903  0.41088795  0.71235168    -0.14500
C1952       C  0.61820811  0.43321911  0.73109934    -0.14500
C1953       C  0.62245354  0.46175208  0.72704222     0.07700
C1954       C  0.61373612  0.46830132  0.70275538    -0.14500
H1955       H  0.58991753  0.45059980  0.66626485     0.11700
H1956       H  0.59828451  0.38849175  0.71675703     0.11700
H1957       H  0.62524575  0.42769336  0.74934216     0.11700
H1958       H  0.61704386  0.49025244  0.69900464     0.11700
C1959       C  0.55987270  0.39168351  0.56366813    -0.14500
C1960       C  0.54089961  0.36501817  0.55009792     0.07700
C1961       C  0.52112356  0.33947147  0.56488692    -0.14500
C1962       C  0.52078971  0.34045824  0.59262946    -0.14500
C1963       C  0.54044776  0.36693702  0.60619686     0.07700
C1964       C  0.55974611  0.39259364  0.59133557    -0.14500
H1965       H  0.57536579  0.41176226  0.55292662     0.11700
H1966       H  0.50613616  0.31857926  0.55502815     0.11700
H1967       H  0.50567904  0.32028329  0.60344396     0.11700
H1968       H  0.57508267  0.41343754  0.60108828     0.11700
C1969       C  0.59400286  0.09735024  0.72666318    -0.14500
C1970       C  0.59439103  0.09169161  0.69943594     0.07700
C1971       C  0.61205706  0.08027220  0.69066520    -0.14500
C1972       C  0.62775331  0.07327569  0.70908026    -0.14500
C1973       C  0.62558573  0.07731898  0.73636845     0.07700
C1974       C  0.60909087  0.08995322  0.74485619    -0.14500
H1975       H  0.58110496  0.10661595  0.73420801     0.11700
H1976       H  0.61273295  0.07560837  0.66986759     0.11700
H1977       H  0.64036191  0.06342115  0.70217386     0.11700
H1978       H  0.60741265  0.09364374  0.76574422     0.11700
C1979       C  0.51219759  0.11294440  0.71752136    -0.14500
C1980       C  0.50619462  0.09857961  0.69286171     0.07700
C1981       C  0.96899710  0.06854827  0.68393691    -0.14500
C1982       C  0.94599783  0.06286270  0.70150794    -0.14500
C1983       C  0.95254785  0.07644338  0.72665103     0.07700
C1984       C  0.98221271  0.09745471  0.73305996    -0.14500
H1985       H  0.53495688  0.12725570  0.72415263     0.11700
H1986       H  0.96365452  0.05645651  0.66539022     0.11700
H1987       H  0.92326522  0.04675494  0.69594285     0.11700
H1988       H  0.98795338  0.10857392  0.75209864     0.11700
C1989       C  0.54271238  0.11133256  0.59594201    -0.14500
C1990       C  0.55764480  0.09979152  0.61024650     0.07700
C1991       C  0.57477268  0.09063414  0.59617840    -0.14500
C1992       C  0.57664188  0.09278649  0.56840137    -0.14500
C1993       C  0.56173295  0.10450118  0.55419539     0.07700
C1994       C  0.54482367  0.11376745  0.56838477    -0.14500
H1995       H  0.52955151  0.11887871  0.60607977     0.11700
H1996       H  0.58652148  0.08160744  0.60660410     0.11700
H1997       H  0.58992973  0.08551392  0.55808254     0.11700
H1998       H  0.53310892  0.12297177  0.55818059     0.11700
C1999       C  0.54530047  0.59331446  0.64061904     0.79100
N2000       N  0.52231181  0.59388636  0.65273487    -0.79200
C2001       C  0.52102934  0.59457149  0.67952615     0.81500
N2002       N  0.54249848  0.59428804  0.69408930    -0.79200
C2003       C  0.56521037  0.59314013  0.68262621     0.81600
N2004       N  0.56658754  0.59253262  0.65570928    -0.80900
C2005       C  0.54529067  0.86887068  0.63602341     0.79100
N2006       N  0.56900974  0.89190449  0.64882702    -0.79200
C2007       C  0.57108554  0.89147553  0.67563117     0.81500
N2008       N  0.54926085  0.86856811  0.68942947    -0.79200
C2009       C  0.52518170  0.84599052  0.67741527     0.81600
N2010       N  0.52308048  0.84610720  0.65051848    -0.80900
C2011       C  0.95354469  0.95496057  0.81644585     0.79100
N2012       N  0.94139318  0.92488012  0.81642878    -0.79200
C2013       C  0.95891539  0.91268216  0.81637054     0.81500
N2014       N  0.98900182  0.93091705  0.81644388    -0.79200
C2015       C  0.50393265  0.96728987  0.81612654     0.81600
N2016       N  0.98385254  0.97315087  0.81644443    -0.80900
O2017       O  0.83521560  0.54612658  0.78360047    -0.86500
O2018       O  0.89016041  0.59298577  0.77256114    -0.83500
C2019       C  0.89588689  0.60517018  0.79511545     0.97000
O2020       O  0.90392299  0.59481544  0.81379227    -0.83600
O2021       O  0.90771391  0.55250273  0.84403662    -0.86200
C2022       C  0.88296309  0.53721146  0.85576018     1.01500
O2023       O  0.85970038  0.52076584  0.84271081    -0.79000
O2024       O  0.81999921  0.50198806  0.80117881    -0.79100
C2025       C  0.81494100  0.52257966  0.79431417     1.01500
O2026       O  0.84464089  0.50842140  0.74913738    -0.86500
O2027       O  0.90242096  0.55349349  0.74311955    -0.83500
C2028       C  0.92871858  0.57367520  0.74825416     0.97000
O2029       O  0.93529875  0.58548067  0.77108973    -0.83600
O2030       O  0.93370896  0.54015725  0.79990095    -0.86200
C2031       C  0.92271512  0.51409528  0.80909134     1.01500
O2032       O  0.89528524  0.99305507  0.81570559    -0.79000
O2033       O  0.85745080  0.97664770  0.77317813    -0.79100
C2034       C  0.84644452  0.97939800  0.75195449     1.01400
Cr2035     Cr  0.86914521  0.54943440  0.76436553     1.93700
Cr2036     Cr  0.91734699  0.56624056  0.80623664     1.93200
Cr2037     Cr  0.85983656  0.50401156  0.80777476     1.39100
O2038       O  0.88199502  0.53964542  0.79292719    -1.24200
O2039       O  0.86244528  0.70662511  0.78625788    -0.86500
O2040       O  0.81712133  0.71562595  0.77656550    -0.83500
C2041       C  0.80599839  0.71032536  0.79955367     0.97000
O2042       O  0.81751176  0.72971951  0.81748510    -0.81500
O2043       O  0.86215935  0.77608715  0.84614461    -0.86200
C2044       C  0.87583698  0.76498227  0.85756350     1.01500
O2045       O  0.89086029  0.75711419  0.84410345    -0.79000
O2046       O  0.90749890  0.73566672  0.80200316    -0.79100
C2047       C  0.88595381  0.70982778  0.79609584     1.01500
O2048       O  0.90029163  0.75344019  0.75023208    -0.86500
O2049       O  0.85650613  0.76673045  0.74506589    -0.83500
C2050       C  0.83692456  0.77300374  0.75040191     0.97000
O2051       O  0.82714654  0.76999538  0.77391947    -0.83600
O2052       O  0.87552041  0.81407643  0.80083392    -0.86200
C2053       C  0.90174564  0.82843141  0.80968306     1.01500
O2054       O  0.91467904  0.81495615  0.81808793    -0.79000
O2055       O  0.92820312  0.79226451  0.77519719    -0.79100
C2056       C  0.92398709  0.77815861  0.75387653     1.01400
Cr2057     Cr  0.86010968  0.73754713  0.76671778     1.93700
Cr2058     Cr  0.84742793  0.77165636  0.80856125     1.93200
Cr2059     Cr  0.90753410  0.77400296  0.80881143     1.39100
O2060       O  0.87192582  0.76122521  0.79473650    -1.24200
O2061       O  0.70336535  0.57541860  0.78679801    -0.86500
O2062       O  0.69325458  0.52080183  0.77329467    -0.83500
C2063       C  0.69916207  0.51330543  0.79525693     0.97000
O2064       O  0.68048029  0.50487011  0.81398131    -0.83600
O2065       O  0.63598505  0.50327305  0.84555573    -0.86200
C2066       C  0.64693963  0.52823915  0.85715377     1.01500
O2067       O  0.65382297  0.55153150  0.84421857    -0.79000
O2068       O  0.67492752  0.59099515  0.80317088    -0.79100
C2069       C  0.70057588  0.59534186  0.79796694     1.01500
O2070       O  0.65680210  0.56844439  0.75193969    -0.86500
O2071       O  0.64190752  0.51052121  0.74406076    -0.83500
C2072       C  0.63912316  0.98357132  0.75054431     0.97000
O2073       O  0.64236149  0.97595156  0.77365666    -0.83600
O2074       O  0.60110294  0.98115986  0.80306986    -0.86200
C2075       C  0.58126360  0.49143986  0.81061960     1.01500
O2076       O  0.59546869  0.51794616  0.81944890    -0.79000
O2077       O  0.61790486  0.55478759  0.77707766    -0.79100
C2078       C  0.63190609  0.56610614  0.75595163     1.01400
Cr2079     Cr  0.67192849  0.54278971  0.76629367     1.93700
Cr2080     Cr  0.63803378  0.49353706  0.80737368     1.93200
Cr2081     Cr  0.63653715  0.55199284  0.80981360     1.39100
O2082       O  0.64866494  0.52939635  0.79461610    -1.24200
C2083       C  0.81593720  0.86395416  0.63668326     0.79100
N2084       N  0.81280441  0.83933595  0.64934506    -0.79200
C2085       C  0.80957966  0.83676569  0.67602398     0.81500
N2086       N  0.81023745  0.85904274  0.68992588    -0.79200
C2087       C  0.81413591  0.88403727  0.67812225     0.81600
N2088       N  0.81710700  0.88663936  0.65125304    -0.80900
C2089       C  0.71448421  0.93155002  0.30719874     0.79100
N2090       N  0.73741376  0.93201592  0.32066360    -0.79200
C2091       C  0.73944468  0.93557892  0.34741281     0.81500
N2092       N  0.71835217  0.93808973  0.36035303    -0.79200
C2093       C  0.69514150  0.93697918  0.34768764     0.81600
N2094       N  0.69306757  0.93353054  0.32093933    -0.80900
C2095       C  0.99813029  0.70987727  0.30035644     0.79100
N2096       N  0.99851773  0.68782094  0.31466727    -0.79200
C2097       C  0.99466919  0.68653959  0.34140537     0.81500
N2098       N  0.99054814  0.70717848  0.35345999    -0.79200
C2099       C  0.99072267  0.72936417  0.33960737     0.81600
N2100       N  0.99492276  0.73100256  0.31307603    -0.80900
C2101       C  0.62500613  0.80062789  0.48176164     0.79100
N2102       N  0.60843947  0.77041238  0.47905480    -0.79200
C2103       C  0.62153091  0.75359790  0.47918921     0.81500
N2104       N  0.65201103  0.76767392  0.48142067    -0.79200
C2105       C  0.66868037  0.79824346  0.48397706     0.81600
N2106       N  0.65483862  0.81411997  0.48438455    -0.80900
O2107       O  0.98905891  0.85370991  0.43739658    -0.86500
O2108       O  0.53837132  0.91571743  0.44978897    -0.83500
C2109       C  0.56150863  0.93536686  0.46143273     0.97000
O2110       O  0.58226503  0.93046880  0.46738996    -0.83600
O2111       O  0.56234178  0.88983787  0.50829449    -0.86200
C2112       C  0.54543342  0.86627387  0.52101153     1.01500
O2113       O  0.53056050  0.84168373  0.50894209    -0.79000
O2114       O  0.98684955  0.84036673  0.47875027    -0.79100
C2115       C  0.97653063  0.84793123  0.45975198     1.01500
O2116       O  0.53249644  0.84970198  0.40785343    -0.86500
O2117       O  0.57691831  0.90795540  0.41540745    -0.83500
C2118       C  0.59965749  0.90619058  0.41959744     0.97000
O2119       O  0.60205269  0.89449747  0.44058143    -0.83600
O2120       O  0.58432335  0.85521491  0.48229648    -0.86200
C2121       C  0.57002521  0.82831333  0.47405623     1.01500
O2122       O  0.54417984  0.81706732  0.46466396    -0.79000
O2123       O  0.49997624  0.81586408  0.43508739    -0.79100
C2124       C  0.51255438  0.82302663  0.41254015     1.01400
Cr2125     Cr  0.53580135  0.88246006  0.42964547     1.93700
Cr2126     Cr  0.58007705  0.89079492  0.47349252     1.93200
Cr2127     Cr  0.51812036  0.83314473  0.47075798     1.39100
O2128       O  0.54498991  0.86884844  0.45803735    -1.24200
O2129       O  0.53547903  0.54207772  0.45404808    -0.86500
O2130       O  0.00022777  0.56762809  0.44116698    -0.83500
C2131       C  0.98786360  0.56130597  0.46363986     0.97000
O2132       O  0.00001310  0.57971616  0.48252468    -0.83600
O2133       O  0.54183555  0.61376303  0.51463943    -0.86200
C2134       C  0.55312953  0.60031852  0.52607787     1.01500
O2135       O  0.56704863  0.59085363  0.51291681    -0.79000
O2136       O  0.58098882  0.56751663  0.46975176    -0.79100
C2137       C  0.55810935  0.54276093  0.46349660     1.01500
O2138       O  0.57667796  0.58806555  0.41911678    -0.86500
O2139       O  0.53754340  0.60759843  0.41347038    -0.83500
C2140       C  0.52128939  0.61802123  0.41926463     0.97000
O2141       O  0.51157333  0.61563834  0.44266320    -0.83600
O2142       O  0.56194981  0.65563255  0.47149119    -0.86200
C2143       C  0.58816762  0.66669268  0.48061028     1.01500
O2144       O  0.59718931  0.64958950  0.48857433    -0.79000
O2145       O  0.60702931  0.62535504  0.44461990    -0.79100
C2146       C  0.60146756  0.61155171  0.42297291     1.01400
Cr2147     Cr  0.53700523  0.57566793  0.43493162     1.93700
Cr2148     Cr  0.52904176  0.61298482  0.47721389     1.93200
Cr2149     Cr  0.58515447  0.60753075  0.47784594     1.39100
O2150       O  0.55052536  0.59880945  0.46342449    -1.24200
O2151       O  0.87435883  0.91470568  0.44919807    -0.86500
O2152       O  0.86424691  0.85949355  0.43851183    -0.83500
C2153       C  0.87032083  0.85317226  0.46093063     0.97000
O2154       O  0.85217433  0.84583718  0.47984239    -0.83600
O2155       O  0.80590880  0.84143597  0.50987195    -0.86200
C2156       C  0.81658010  0.86606521  0.52186614     1.01500
O2157       O  0.82428978  0.88965724  0.50906803    -0.79000
O2158       O  0.84644820  0.92991942  0.46770279    -0.79100
C2159       C  0.87192074  0.93500133  0.46014917     1.01500
O2160       O  0.82709292  0.90514584  0.41505262    -0.86500
O2161       O  0.81221625  0.84687459  0.40909119    -0.83500
C2162       C  0.80582424  0.82064913  0.41442089     0.97000
O2163       O  0.81097209  0.81438518  0.43733678    -0.83600
O2164       O  0.76744295  0.81616822  0.46545779    -0.86200
C2165       C  0.75286421  0.82711932  0.47480187     1.01500
O2166       O  0.76617954  0.85420216  0.48293951    -0.79000
O2167       O  0.78921807  0.89363912  0.44101937    -0.79100
C2168       C  0.80297602  0.90413019  0.41955774     1.01400
Cr2169     Cr  0.84257207  0.88052806  0.43023232     1.93700
Cr2170     Cr  0.81001940  0.83234667  0.47217435     1.93200
Cr2171     Cr  0.80746799  0.89012003  0.47405758     1.39100
O2172       O  0.81988364  0.86783951  0.45890847    -1.24200
C2173       C  0.71065926  0.70037925  0.30495875     0.79100
N2174       N  0.68950349  0.67692567  0.31958061    -0.79200
C2175       C  0.69215724  0.67693406  0.34643012     0.81500
N2176       N  0.71568606  0.70035479  0.35830004    -0.79200
C2177       C  0.73642304  0.72389044  0.34422816     0.81600
N2178       N  0.73378913  0.72406860  0.31753089    -0.80900
C2179       C  0.88063371  0.53651937  0.97052402     0.79100
N2180       N  0.90272482  0.56057121  0.98359000    -0.79200
C2181       C  0.90436629  0.56042778  0.01033511     0.81500
N2182       N  0.88377951  0.53639990  0.02398900    -0.79200
C2183       C  0.86123181  0.51251205  0.01166213     0.81600
N2184       N  0.85938507  0.51258127  0.98469838    -0.80900
C2185       C  0.87945204  0.76378401  0.97267478     0.79100
N2186       N  0.90390487  0.76643158  0.98529063    -0.79200
C2187       C  0.90646849  0.76974296  0.01209256     0.81500
N2188       N  0.88440897  0.76965157  0.02586336    -0.79200
C2189       C  0.85978414  0.76635187  0.01412271     0.81600
N2190       N  0.85723235  0.76337677  0.98731919    -0.80900
C2191       C  0.79506277  0.63229019  0.14331450     0.79100
N2192       N  0.82513840  0.64376583  0.14213291    -0.79200
C2193       C  0.83625783  0.62513842  0.14045126     0.81500
N2194       N  0.81712224  0.59510413  0.14023353    -0.79200
C2195       C  0.78721040  0.58339662  0.14166743     0.81600
N2196       N  0.77634930  0.60206610  0.14294730    -0.80900
O2197       O  0.53581098  0.73943272  0.11566710    -0.86500
O2198       O  0.52339085  0.68317237  0.10453279    -0.83500
C2199       C  0.52979523  0.67620620  0.12652653     0.97000
O2200       O  0.51271862  0.67069798  0.14609884    -0.83600
O2201       O  0.97444167  0.68359415  0.17575154    -0.86200
C2202       C  0.48193203  0.69662834  0.18892332     1.01500
O2203       O  0.99924259  0.73238961  0.17339448    -0.79000
O2204       O  0.50907955  0.75685013  0.13252806    -0.79100
C2205       C  0.53421293  0.76023549  0.12654343     1.01500
O2206       O  0.99790903  0.74446530  0.07964155    -0.86500
O2207       O  0.97911883  0.68511318  0.07456393    -0.83500
C2208       C  0.97005669  0.65838164  0.08069834     0.97000
O2209       O  0.97277511  0.65165234  0.10418594    -0.83600
O2210       O  0.93288104  0.66137381  0.13267967    -0.86200
C2211       C  0.92249682  0.67657081  0.14241413     1.01500
O2212       O  0.93988749  0.70264482  0.15115423    -0.79000
O2213       O  0.96229552  0.73769695  0.10686063    -0.79100
C2214       C  0.97503399  0.74581824  0.08462717     1.01400
Cr2215     Cr  0.50297791  0.70595446  0.09699647     1.93700
Cr2216     Cr  0.97517284  0.67190744  0.13833993     1.93200
Cr2217     Cr  0.98101377  0.73367014  0.13938140     1.39100
O2218       O  0.98905043  0.70795340  0.12426877    -1.24200
O2219       O  0.70348471  0.87185539  0.12179398    -0.86500
O2220       O  0.65714227  0.87873612  0.10940814    -0.83500
C2221       C  0.64409450  0.87284670  0.13157597     0.97000
O2222       O  0.65464267  0.89146703  0.15023857    -0.83600
O2223       O  0.69750459  0.93818079  0.18041696    -0.86200
C2224       C  0.71254114  0.92895619  0.19237250     1.01500
O2225       O  0.72920627  0.92259469  0.17955084    -0.79000
O2226       O  0.74822423  0.90256145  0.13752433    -0.79100
C2227       C  0.72704063  0.87607384  0.13250700     1.01500
O2228       O  0.74189155  0.91972327  0.08665202    -0.86500
O2229       O  0.69665761  0.93112084  0.07948208    -0.83500
C2230       C  0.67675349  0.93711688  0.08450303     0.97000
O2231       O  0.66537801  0.93243229  0.10746039    -0.83600
O2232       O  0.71089383  0.97709660  0.13596634    -0.86200
C2233       C  0.73669546  0.99254573  0.14548388     1.01500
O2234       O  0.75066930  0.98014444  0.15398221    -0.79000
O2235       O  0.76574417  0.95973781  0.11084823    -0.79100
C2236       C  0.76266036  0.94650365  0.08923715     1.01400
Cr2237     Cr  0.70062912  0.90218666  0.10150639     1.93700
Cr2238     Cr  0.68410948  0.93405928  0.14263154     1.93200
Cr2239     Cr  0.74588132  0.94004389  0.14436001     1.39100
O2240       O  0.71025877  0.92539505  0.12976264    -1.24200
O2241       O  0.65726615  0.68975911  0.10627386    -0.86500
O2242       O  0.70343536  0.74560788  0.11900712    -0.83500
C2243       C  0.72659996  0.76560103  0.13046341     0.97000
O2244       O  0.74771070  0.76117887  0.13619822    -0.83600
O2245       O  0.72950243  0.72104816  0.17752603    -0.86200
C2246       C  0.71222099  0.69763966  0.19030280     1.01500
O2247       O  0.69725650  0.67295882  0.17846981    -0.79000
O2248       O  0.65436865  0.67491420  0.14724038    -0.79100
C2249       C  0.64302409  0.68089374  0.12783506     1.01500
O2250       O  0.69766030  0.67922328  0.07711170    -0.86500
O2251       O  0.74203501  0.73793031  0.08399461    -0.83500
C2252       C  0.76504238  0.73651771  0.08800396     0.97000
O2253       O  0.76799074  0.72561089  0.10920621    -0.83600
O2254       O  0.75302720  0.68766953  0.15099857    -0.86200
C2255       C  0.73917825  0.66077123  0.14288816     1.01500
O2256       O  0.71260078  0.64870679  0.13484778    -0.79000
O2257       O  0.66696891  0.64532290  0.10532922    -0.79100
C2258       C  0.67824247  0.65246658  0.08233704     1.01400
Cr2259     Cr  0.70101870  0.71216884  0.09895948     1.93700
Cr2260     Cr  0.74661416  0.72203091  0.14234749     1.93200
Cr2261     Cr  0.68495809  0.66349553  0.14053667     1.39100
O2262       O  0.71105341  0.69929725  0.12744400    -1.24200
C2263       C  0.65683870  0.53573375  0.97130514     0.79100
N2264       N  0.65537690  0.55795007  0.98411450    -0.79200
C2265       C  0.65495985  0.55843753  0.01100326     0.81500
N2266       N  0.65661121  0.53717671  0.02485870    -0.79200
C2267       C  0.65888650  0.51551783  0.01251150     0.81600
N2268       N  0.65904249  0.51477709  0.98564696    -0.80900
C2269       C  0.64147493  0.57634181  0.05080324    -0.14500
C2270       C  0.65538714  0.58280068  0.02592345     0.07700
C2271       C  0.67396388  0.61270233  0.01821571    -0.14500
C2272       C  0.68054158  0.63575192  0.03614940    -0.14500
C2273       C  0.66834092  0.62906998  0.06184498     0.07700
C2274       C  0.64776938  0.59921417  0.06853264    -0.14500
H2275       H  0.62695934  0.55339922  0.05711036     0.11700
H2276       H  0.68511161  0.61812882  0.99918126     0.11700
H2277       H  0.69622889  0.65860129  0.03036745     0.11700
H2278       H  0.63763563  0.59329908  0.08800606     0.11700
C2279       C  0.75598985  0.84925259  0.13625697    -0.14500
C2280       C  0.72902913  0.84905385  0.13763806     0.07700
C2281       C  0.70230569  0.82143688  0.14042314    -0.14500
C2282       C  0.70208016  0.79465415  0.13958269    -0.14500
C2283       C  0.72859713  0.79451831  0.13615592     0.07700
C2284       C  0.75577140  0.82208547  0.13558569    -0.14500
H2285       H  0.77690298  0.87016155  0.13404886     0.11700
H2286       H  0.68116587  0.82043548  0.14198615     0.11700
H2287       H  0.68083847  0.77386149  0.14056758     0.11700
H2288       H  0.77657670  0.82262564  0.13299221     0.11700
C2289       C  0.68040285  0.95767365  0.03878538    -0.14500
C2290       C  0.66645696  0.94960745  0.06374567     0.07700
C2291       C  0.64375532  0.95550042  0.06950027    -0.14500
C2292       C  0.63684725  0.97134395  0.05161529    -0.14500
C2293       C  0.65230333  0.98135387  0.02756548     0.07700
C2294       C  0.68170432  0.48415581  0.02074392    -0.14500
H2295       H  0.69786965  0.95323661  0.03378672     0.11700
H2296       H  0.63232693  0.94922417  0.08840502     0.11700
H2297       H  0.62062255  0.97732849  0.05723110     0.11700
H2298       H  0.69123362  0.48901965  0.00101582     0.11700
C2299       C  0.56990766  0.67283396  0.15233539    -0.14500
C2300       C  0.55720346  0.67430850  0.12814024     0.07700
C2301       C  0.57195453  0.67565319  0.10449469    -0.14500
C2302       C  0.59912538  0.67690099  0.10484089    -0.14500
C2303       C  0.61271142  0.67682320  0.12884283     0.07700
C2304       C  0.59749433  0.67404145  0.15268357    -0.14500
H2305       H  0.55902280  0.67165843  0.17091111     0.11700
H2306       H  0.56277694  0.67635314  0.08544637     0.11700
H2307       H  0.60977083  0.67843750  0.08602934     0.11700
H2308       H  0.60728907  0.67372591  0.17149822     0.11700
C2309       C  0.58920174  0.79160249  0.12245936    -0.14500
C2310       C  0.56236681  0.78888412  0.13103150     0.07700
C2311       C  0.56314530  0.81375409  0.14272110    -0.14500
C2312       C  0.59021645  0.84115151  0.14464440    -0.14500
C2313       C  0.61649497  0.84384339  0.13457436     0.07700
C2314       C  0.61580623  0.81875703  0.12402386    -0.14500
H2315       H  0.58963830  0.77294001  0.11365211     0.11700
H2316       H  0.54284720  0.81224555  0.14967080     0.11700
H2317       H  0.59038350  0.86045508  0.15266974     0.11700
H2318       H  0.63589331  0.82040242  0.11624165     0.11700
C2319       C  0.75315867  0.64204649  0.14301462    -0.17600
C2320       C  0.78274637  0.65258638  0.14479035    -0.32700
H2321       H  0.73808408  0.61823918  0.14014697     0.11500
H2322       H  0.79818620  0.67645506  0.14663736     0.12000
C2323       C  0.77542131  0.53108422  0.14623566    -0.17600
C2324       C  0.76635843  0.55058268  0.14137688    -0.32700
H2325       H  0.79858947  0.53943791  0.15124852     0.11500
H2326       H  0.74297088  0.54232634  0.13748593     0.12000
C2327       C  0.86879557  0.63659290  0.13830367    -0.17600
C2328       C  0.88990063  0.66483087  0.14414612    -0.32700
H2329       H  0.87552525  0.62087226  0.13248708     0.11500
H2330       H  0.88308481  0.68020889  0.15085865     0.12000
C2331       C  0.80636922  0.75232546  0.02256796    -0.14500
C2332       C  0.83561051  0.76333122  0.03163071     0.07700
C2333       C  0.84145234  0.76853966  0.05897552    -0.14500
C2334       C  0.81852477  0.76066769  0.07696873    -0.14500
C2335       C  0.78914876  0.74809205  0.06818732     0.07700
C2336       C  0.78326102  0.74496630  0.04078786    -0.14500
H2337       H  0.80115645  0.74814558  0.00168692     0.11700
H2338       H  0.86371989  0.77752504  0.06682532     0.11700
H2339       H  0.82370692  0.76377625  0.09793004     0.11700
H2340       H  0.76064691  0.73534433  0.03361262     0.11700
C2341       C  0.94567247  0.75592084  0.01917653    -0.14500
C2342       C  0.93074705  0.77035630  0.02772161     0.07700
C2343       C  0.93485203  0.78076228  0.05402168    -0.14500
C2344       C  0.95034427  0.77377342  0.07218750    -0.14500
C2345       C  0.96302513  0.75711025  0.06432120     0.07700
C2346       C  0.96198909  0.74954150  0.03741468    -0.14500
H2347       H  0.94294792  0.74768306  0.99909066     0.11700
H2348       H  0.92422208  0.79257422  0.06114821     0.11700
H2349       H  0.95145222  0.78043245  0.09266821     0.11700
H2350       H  0.97193706  0.73685230  0.03093274     0.11700
C2351       C  0.80717122  0.96487147  0.02488152    -0.14500
C2352       C  0.82477231  0.99612282  0.02679436     0.07700
C2353       C  0.84561280  0.48624965  0.05492040    -0.14500
C2354       C  0.79976662  0.99422231  0.06793523    -0.14500
C2355       C  0.78319290  0.96292930  0.06704462     0.07700
C2356       C  0.78632696  0.94832087  0.04490879    -0.14500
H2357       H  0.81059578  0.95327533  0.00880055     0.11700
H2358       H  0.86869720  0.49765526  0.06116841     0.11700
H2359       H  0.83017278  0.47075610  0.09430871     0.11700
H2360       H  0.77348156  0.92417729  0.04357478     0.11700
C2361       C  0.93550077  0.58213320  0.05008830    -0.14500
C2362       C  0.92628131  0.58665886  0.02533907     0.07700
C2363       C  0.93421320  0.61567985  0.01752830    -0.14500
C2364       C  0.94941476  0.63955542  0.03517271    -0.14500
C2365       C  0.95686185  0.63451935  0.06066716     0.07700
C2366       C  0.95065673  0.60578123  0.06753776    -0.14500
H2367       H  0.92977674  0.55994358  0.05643846     0.11700
H2368       H  0.92703843  0.61954969  0.99857248     0.11700
H2369       H  0.95419845  0.66157793  0.02931923     0.11700
H2370       H  0.95659875  0.60125519  0.08682236     0.11700
C2371       C  0.68906921  0.67408323  0.26175306    -0.14500
C2372       C  0.70924133  0.70012397  0.27558212     0.07700
C2373       C  0.72926368  0.72573870  0.26100821    -0.14500
C2374       C  0.72968606  0.72511864  0.23335602    -0.14500
C2375       C  0.71020502  0.69882816  0.21953959     0.07700
C2376       C  0.68961476  0.67341470  0.23403491    -0.14500
H2377       H  0.67335148  0.65397067  0.27233298     0.11700
H2378       H  0.74502232  0.74626831  0.27095876     0.11700
H2379       H  0.74577356  0.74510270  0.22282858     0.11700
H2380       H  0.67419610  0.65282787  0.22397627     0.11700
C2381       C  0.78430065  0.80252532  0.36912709    -0.14500
C2382       C  0.79245735  0.79705045  0.39414908     0.07700
C2383       C  0.78598921  0.76809744  0.40043447    -0.14500
C2384       C  0.76966929  0.74464574  0.38299080    -0.14500
C2385       C  0.75966291  0.74967482  0.35883536     0.07700
C2386       C  0.76804983  0.77892194  0.35149264    -0.14500
H2387       H  0.78922207  0.82470471  0.36370855     0.11700
H2388       H  0.79233127  0.76322583  0.41938158     0.11700
H2389       H  0.76355381  0.72223807  0.38897059     0.11700
H2390       H  0.76029888  0.78319772  0.33303032     0.11700
C2391       C  0.90340043  0.98767109  0.47978179    -0.14500
C2392       C  0.89969929  0.96503655  0.46217810     0.07700
C2393       C  0.92368155  0.97089889  0.44558719    -0.14500
C2394       C  0.95022049  0.99827309  0.44611846    -0.14500
C2395       C  0.96002143  0.53143496  0.46642044     0.07700
C2396       C  0.93489042  0.52582556  0.48136472    -0.14500
H2397       H  0.88542465  0.98384099  0.49291946     0.11700
H2398       H  0.92192505  0.95430217  0.43166819     0.11700
H2399       H  0.96786249  0.00156881  0.43275334     0.11700
H2400       H  0.93551969  0.54351706  0.49303151     0.11700
C2401       C  0.61644358  0.62290965  0.37533311    -0.14500
C2402       C  0.62422337  0.62304369  0.40204421     0.07700
C2403       C  0.65426681  0.63650747  0.40902084    -0.14500
C2404       C  0.67631322  0.65148317  0.39001334    -0.14500
C2405       C  0.66879362  0.65397429  0.36372925     0.07700
C2406       C  0.63866317  0.63849517  0.35623847    -0.14500
H2407       H  0.59325919  0.61251617  0.36959984     0.11700
H2408       H  0.66070837  0.63637718  0.42941472     0.11700
H2409       H  0.69937118  0.66275508  0.39631395     0.11700
H2410       H  0.63224817  0.64015455  0.33618614     0.11700
C2411       C  0.94729298  0.87027895  0.44591807    -0.14500
C2412       C  0.95015243  0.85049867  0.46274246     0.07700
C2413       C  0.92762527  0.83335705  0.48120704    -0.14500
C2414       C  0.90168245  0.83489705  0.48168012    -0.14500
C2415       C  0.89839440  0.85364716  0.46374726     0.07700
C2416       C  0.92173865  0.87187203  0.44644124    -0.14500
H2417       H  0.96472738  0.88429110  0.43196825     0.11700
H2418       H  0.92960893  0.81810114  0.49444208     0.11700
H2419       H  0.88383479  0.82066610  0.49517399     0.11700
H2420       H  0.91995434  0.88694449  0.43279087     0.11700
C2421       C  0.59161013  0.99128777  0.46908633    -0.14500
C2422       C  0.56397047  0.96450221  0.46675480     0.07700
C2423       C  0.53782777  0.96580570  0.46687541    -0.14500
C2424       C  0.53918854  0.99314049  0.46733709    -0.14500
C2425       C  0.55778932  0.51418955  0.46566537     0.07700
C2426       C  0.58370736  0.51321365  0.47098796    -0.14500
H2427       H  0.61212358  0.99093901  0.46910691     0.11700
H2428       H  0.51613849  0.94558821  0.46558937     0.11700
H2429       H  0.51851481  0.99311621  0.46635590     0.11700
H2430       H  0.60458871  0.53357733  0.47510595     0.11700
C2431       C  0.60156853  0.72033259  0.47643532    -0.17600
C2432       C  0.60920576  0.69992666  0.48254468    -0.32700
H2433       H  0.57881328  0.71227880  0.47017013     0.11500
H2434       H  0.63162074  0.70774608  0.48966311     0.12000
C2435       C  0.70176974  0.81584863  0.48588804    -0.17600
C2436       C  0.71982672  0.80709570  0.47610860    -0.32700
H2437       H  0.71173203  0.83853799  0.49337983     0.11500
H2438       H  0.71005803  0.78480450  0.46774346     0.12000
C2439       C  0.58288094  0.80893586  0.47567969    -0.17600
C2440       C  0.61156977  0.81955468  0.48153414    -0.32700
H2441       H  0.56847569  0.78541339  0.47099497     0.11500
H2442       H  0.62612505  0.84326174  0.48540367     0.12000
C2443       C  0.51796238  0.65314247  0.35427608    -0.14500
C2444       C  0.99870285  0.66598294  0.35847740     0.07700
C2445       C  0.98596198  0.65954929  0.38391220    -0.14500
C2446       C  0.99491182  0.64649779  0.40296699    -0.14500
C2447       C  0.51297214  0.63270820  0.39877119     0.07700
C2448       C  0.52433703  0.63712015  0.37280394    -0.14500
H2449       H  0.52800014  0.65747225  0.33477857     0.11700
H2450       H  0.96999394  0.66589873  0.38947714     0.11700
H2451       H  0.98524246  0.64266717  0.42260086     0.11700
H2452       H  0.53884486  0.62900267  0.36706826     0.11700
C2453       C  0.97360770  0.74615476  0.37752772    -0.14500
C2454       C  0.99086168  0.75337227  0.35444986     0.07700
C2455       C  0.51468485  0.78451682  0.34981371    -0.14500
C2456       C  0.51942407  0.80714903  0.36752637    -0.14500
C2457       C  0.50410459  0.80001507  0.39187953     0.07700
C2458       C  0.97973527  0.76803089  0.39628315    -0.14500
H2459       H  0.95663277  0.72321086  0.38178639     0.11700
H2460       H  0.52811611  0.79026258  0.33201798     0.11700
H2461       H  0.53617496  0.83001401  0.36278068     0.11700
H2462       H  0.96691017  0.76162085  0.41446940     0.11700
C2463       C  0.00643252  0.73665891  0.25722160    -0.14500
C2464       C  0.99996212  0.71059320  0.27114757     0.07700
C2465       C  0.48394948  0.67691165  0.26110626    -0.14500
C2466       C  0.47977059  0.67429313  0.23363910    -0.14500
C2467       C  0.99534755  0.71005648  0.21549089     0.07700
C2468       C  0.00430426  0.73644167  0.22965026    -0.14500
H2469       H  0.01238917  0.75709270  0.26769043     0.11700
H2470       H  0.47700309  0.65688917  0.27272101     0.11700
H2471       H  0.46992995  0.65233615  0.22477773     0.11700
H2472       H  0.00854520  0.75659313  0.21953371     0.11700
C2473       C  0.76482967  0.94180106  0.39045550    -0.14500
C2474       C  0.76152343  0.93301899  0.36370204     0.07700
C2475       C  0.77544439  0.91774494  0.35470289    -0.14500
C2476       C  0.79041625  0.90947824  0.37271360    -0.14500
C2477       C  0.79106083  0.91596625  0.39982544     0.07700
C2478       C  0.77900008  0.93295197  0.40837125    -0.14500
H2479       H  0.75489717  0.95411697  0.39798463     0.11700
H2480       H  0.77323249  0.91065981  0.33426935     0.11700
H2481       H  0.79991177  0.89652619  0.36578692     0.11700
H2482       H  0.77989864  0.93875109  0.42907777     0.11700
C2483       C  0.67668142  0.94226872  0.39134326    -0.14500
C2484       C  0.67102121  0.93530025  0.36421918     0.07700
C2485       C  0.64164419  0.92228896  0.35486800    -0.14500
C2486       C  0.61819504  0.91413895  0.37279090    -0.14500
C2487       C  0.62396665  0.91847819  0.40014491     0.07700
C2488       C  0.65338684  0.93348485  0.40913475    -0.14500
H2489       H  0.69910775  0.95289488  0.39919863     0.11700
H2490       H  0.63661208  0.91671463  0.33412377     0.11700
H2491       H  0.59550018  0.90279240  0.36551700     0.11700
H2492       H  0.65831181  0.93767243  0.43007503     0.11700
C2493       C  0.69154843  0.93222304  0.26364834    -0.14500
C2494       C  0.71276663  0.92883455  0.27785006     0.07700
C2495       C  0.73283932  0.92373617  0.26363806    -0.14500
C2496       C  0.73218142  0.92280702  0.23590979    -0.14500
C2497       C  0.71157644  0.92716078  0.22173622     0.07700
C2498       C  0.69103501  0.93150497  0.23595622    -0.14500
H2499       H  0.67568113  0.93610343  0.27388175     0.11700
H2500       H  0.74937121  0.92084934  0.27390389     0.11700
H2501       H  0.74832875  0.91943722  0.22556319     0.11700
H2502       H  0.67479224  0.93483401  0.22566458     0.11700
C2503       C  0.81322055  0.84059127  0.59269945    -0.14500
C2504       C  0.81795193  0.86560603  0.60729021     0.07700
C2505       C  0.82382269  0.89152443  0.59343925    -0.14500
C2506       C  0.82431373  0.89211166  0.56565452    -0.14500
C2507       C  0.81868120  0.86670882  0.55118069     0.07700
C2508       C  0.81349855  0.84111380  0.56506315    -0.14500
H2509       H  0.80869883  0.82022834  0.60259490     0.11700
H2510       H  0.82770703  0.91123541  0.60403058     0.11700
H2511       H  0.82837740  0.91219845  0.55551328     0.11700
H2512       H  0.80922745  0.82121783  0.55454833     0.11700
C2513       C  0.65808642  0.55697362  0.89938669    -0.14500
C2514       C  0.65075967  0.53029420  0.88627101     0.07700
C2515       C  0.64631876  0.50564708  0.90132253    -0.14500
C2516       C  0.64887079  0.50758653  0.92893132    -0.14500
C2517       C  0.65559554  0.53410382  0.94204041     0.07700
C2518       C  0.66030906  0.55880157  0.92694454    -0.14500
H2519       H  0.66162920  0.57639596  0.88837740     0.11700
H2520       H  0.64067755  0.48481268  0.89179003     0.11700
H2521       H  0.64896969  0.98742272  0.94020972     0.11700
H2522       H  0.66565302  0.57958081  0.93641762     0.11700
C2523       C  0.75295254  0.67734067  0.81377612    -0.14500
C2524       C  0.77988154  0.68089678  0.80462613     0.07700
C2525       C  0.78114976  0.65592571  0.79675873    -0.14500
C2526       C  0.75552086  0.62790233  0.79631147    -0.14500
C2527       C  0.72786484  0.62433237  0.80321327     0.07700
C2528       C  0.72688265  0.64906853  0.81293290    -0.14500
H2529       H  0.75175284  0.69657328  0.81988964     0.11700
H2530       H  0.80187214  0.65832985  0.78987751     0.11700
H2531       H  0.75725673  0.60928290  0.78922189     0.11700
H2532       H  0.70590581  0.64684400  0.81865774     0.11700
C2533       C  0.85506757  0.76635853  0.90209833    -0.14500
C2534       C  0.87532696  0.76245746  0.88696289     0.07700
C2535       C  0.89593416  0.75733100  0.90028276    -0.14500
C2536       C  0.89699408  0.75725556  0.92804235    -0.14500
C2537       C  0.87721293  0.76192218  0.94320565     0.07700
C2538       C  0.85587221  0.76590469  0.92983962    -0.14500
H2539       H  0.83877169  0.77013197  0.89249132     0.11700
H2540       H  0.91182695  0.75416305  0.88924367     0.11700
H2541       H  0.91356407  0.75387244  0.93760893     0.11700
H2542       H  0.84020919  0.76947630  0.94080544     0.11700
C2543       C  0.83747444  0.78898295  0.70339615    -0.14500
C2544       C  0.82526031  0.78362384  0.72909951     0.07700
C2545       C  0.80301619  0.79019450  0.73464635    -0.14500
C2546       C  0.79535753  0.80463350  0.71580704    -0.14500
C2547       C  0.80978413  0.81276156  0.69110698     0.07700
C2548       C  0.82973344  0.80345583  0.68446897    -0.14500
H2549       H  0.85432649  0.78365350  0.69840834     0.11700
H2550       H  0.79272969  0.78574455  0.75403778     0.11700
H2551       H  0.77975120  0.81149230  0.72126868     0.11700
H2552       H  0.84129152  0.80969731  0.66562448     0.11700
C2553       C  0.91307932  0.65656852  0.81321074    -0.14500
C2554       C  0.89262206  0.63128018  0.79866906     0.07700
C2555       C  0.86924596  0.63142990  0.78535945    -0.14500
C2556       C  0.86683239  0.65665517  0.78556813    -0.14500
C2557       C  0.88804853  0.68273660  0.79877013     0.07700
C2558       C  0.91100055  0.68239416  0.81301513    -0.14500
H2559       H  0.93127472  0.65678268  0.82365274     0.11700
H2560       H  0.85301340  0.61205418  0.77427953     0.11700
H2561       H  0.84875953  0.65593768  0.77445962     0.11700
H2562       H  0.92748210  0.70210182  0.82352532     0.11700
C2563       C  0.76078963  0.49616779  0.81073523    -0.14500
C2564       C  0.78504924  0.51971439  0.79703820     0.07700
C2565       C  0.78064715  0.54137749  0.78462698    -0.14500
C2566       C  0.75300107  0.53918345  0.78492222    -0.14500
C2567       C  0.72859190  0.51554638  0.79798187     0.07700
C2568       C  0.73280437  0.49427257  0.81143273    -0.14500
H2569       H  0.76063705  0.96737450  0.80537684     0.11700
H2570       H  0.79852740  0.55998762  0.77393073     0.11700
H2571       H  0.75062947  0.55606601  0.77456055     0.11700
H2572       H  0.71253044  0.96559050  0.80733203     0.11700
C2573       C  0.90647088  0.55859078  0.89960564    -0.14500
C2574       C  0.88156041  0.53767570  0.88506716     0.07700
C2575       C  0.85586306  0.51648736  0.89886053    -0.14500
C2576       C  0.85534772  0.51594787  0.92662827    -0.14500
C2577       C  0.88039777  0.53682051  0.94112774     0.07700
C2578       C  0.90585657  0.55825171  0.92724052    -0.14500
H2579       H  0.92659513  0.57517053  0.88962393     0.11700
H2580       H  0.83631734  0.49996849  0.88819892     0.11700
H2581       H  0.83538427  0.49922937  0.93670733     0.11700
H2582       H  0.92564567  0.57461955  0.93771662     0.11700
C2583       C  0.82175466  0.92581604  0.74103154    -0.14500
C2584       C  0.83502194  0.95533033  0.73221356     0.07700
C2585       C  0.83821181  0.96135473  0.70481961    -0.14500
C2586       C  0.83006315  0.93808703  0.68658306    -0.14500
C2587       C  0.81814568  0.90859128  0.69565048     0.07700
C2588       C  0.81302891  0.90273839  0.72302608    -0.14500
H2589       H  0.81854796  0.92060194  0.76200793     0.11700
H2590       H  0.84832171  0.98412143  0.69766014     0.11700
H2591       H  0.83423849  0.94331060  0.66568014     0.11700
H2592       H  0.80337851  0.88029542  0.73087182     0.11700
C2593       C  0.94548687  0.87979361  0.81590328    -0.17600
C2594       C  0.91636488  0.86130877  0.81082452    -0.32700
H2595       H  0.95985676  0.87071755  0.81908810     0.11500
H2596       H  0.90242582  0.87067434  0.80658944     0.12000
C2597       C  0.53698297  0.98705951  0.81626191    -0.17600
C2598       C  0.55487653  0.97568650  0.81349416    -0.32700
H2599       H  0.54664294  0.01106565  0.81793455     0.11500
H2600       H  0.53809615  0.44973699  0.80801027     0.12000
C2601       C  0.93318949  0.96697714  0.81599626    -0.17600
C2602       C  0.94256154  0.99567860  0.81050662    -0.32700
H2603       H  0.90954835  0.95134796  0.81903964     0.11500
H2604       H  0.96530466  0.51491245  0.80310924     0.12000
C2605       C  0.96421056  0.80331514  0.68769828    -0.14500
C2606       C  0.50074072  0.82418325  0.69466727     0.07700
C2607       C  0.50692076  0.82311971  0.72169425    -0.14500
C2608       C  0.97731469  0.80542708  0.74178513    -0.14500
C2609       C  0.94759635  0.79041088  0.73357569     0.07700
C2610       C  0.94109412  0.78849983  0.70631456    -0.14500
H2611       H  0.95872191  0.80316004  0.66698345     0.11700
H2612       H  0.52961639  0.83458215  0.72898043     0.11700
H2613       H  0.98289048  0.80675232  0.76262005     0.11700
H2614       H  0.91818427  0.77687991  0.69959076     0.11700
C2615       C  0.60307936  0.94601503  0.68542415    -0.14500
C2616       C  0.59473137  0.91636256  0.69093853     0.07700
C2617       C  0.60406349  0.90973424  0.71476685    -0.14500
C2618       C  0.61952538  0.93184455  0.73366610    -0.14500
C2619       C  0.62600158  0.96111329  0.72914996     0.07700
C2620       C  0.61861898  0.96828482  0.70444090    -0.14500
H2621       H  0.59570133  0.95153331  0.66737467     0.11700
H2622       H  0.59781008  0.88695753  0.71944082     0.11700
H2623       H  0.62530721  0.92569995  0.75227046     0.11700
H2624       H  0.62353840  0.99075408  0.70031812     0.11700
C2625       C  0.56508547  0.89293003  0.56419731    -0.14500
C2626       C  0.54403542  0.86732160  0.55036105     0.07700
C2627       C  0.52254777  0.84252634  0.56493011    -0.14500
C2628       C  0.52243564  0.84320372  0.59270312    -0.14500
C2629       C  0.54399981  0.86859398  0.60654871     0.07700
C2630       C  0.56514616  0.89351545  0.59188841    -0.14500
H2631       H  0.58200439  0.91239844  0.55362759     0.11700
H2632       H  0.50596550  0.82247431  0.55486843     0.11700
H2633       H  0.50580848  0.82359428  0.60331039     0.11700
H2634       H  0.58204520  0.91350206  0.60179725     0.11700
C2635       C  0.58620438  0.59593030  0.72740535    -0.14500
C2636       C  0.58647215  0.59051641  0.70013375     0.07700
C2637       C  0.60472109  0.57995078  0.69092225    -0.14500
C2638       C  0.62103612  0.57337699  0.70895322    -0.14500
C2639       C  0.61892686  0.57700427  0.73630389     0.07700
C2640       C  0.60198084  0.58899029  0.74524046    -0.14500
H2641       H  0.57281974  0.60450877  0.73523992     0.11700
H2642       H  0.60532223  0.57550336  0.67005229     0.11700
H2643       H  0.63395782  0.56400647  0.70171322     0.11700
H2644       H  0.60033038  0.59231556  0.76621867     0.11700
C2645       C  0.50076122  0.60698714  0.71841879    -0.14500
C2646       C  0.49575795  0.59328442  0.69354163     0.07700
C2647       C  0.96903891  0.57579936  0.68527704    -0.14500
C2648       C  0.94590692  0.56873130  0.70318066    -0.14500
C2649       C  0.95190813  0.58364964  0.72767636     0.07700
C2650       C  0.98090259  0.60705980  0.73310859    -0.14500
H2651       H  0.52323530  0.62144474  0.72566144     0.11700
H2652       H  0.96441080  0.56271409  0.66737827     0.11700
H2653       H  0.92367376  0.55063812  0.69844099     0.11700
H2654       H  0.98617407  0.61917586  0.75163438     0.11700
C2655       C  0.52810509  0.60006246  0.59632633    -0.14500
C2656       C  0.54701180  0.59389061  0.61124674     0.07700
C2657       C  0.56754711  0.58882782  0.59779211    -0.14500
C2658       C  0.56916781  0.59010479  0.57002861    -0.14500
C2659       C  0.55054086  0.59683176  0.55526620     0.07700
C2660       C  0.52993026  0.60162609  0.56876710    -0.14500
H2661       H  0.51206891  0.60416939  0.60593428     0.11700
H2662       H  0.58240826  0.58397450  0.60868862     0.11700
H2663       H  0.58538724  0.58645564  0.56016591     0.11700
H2664       H  0.51520452  0.60678358  0.55800499     0.11700
loop_ 
_geom_bond_atom_site_label_1 
_geom_bond_atom_site_label_2 
_geom_bond_distance 
_geom_bond_site_symmetry_2 
_ccdc_geom_bond_type 
C1            N2   1.364       .  A
C1            N6   1.367       .  A
C1          C658   1.483       .  S
N2            C3   1.355       .  A
C3            N4   1.347       .  A
C3          C648   1.469   1_455  S
N4            C5   1.351       .  A
C5            N6   1.362       .  A
C5          C638   1.477       .  S
C7            N8   1.365       .  A
C7           N12   1.370       .  A
C7          C631   1.483       .  S
N8            C9   1.355       .  A
C9           N10   1.345       .  A
C9          C618   1.466       .  S
N10          C11   1.347       .  A
C11          N12   1.361       .  A
C11         C608   1.477       .  S
C13          N14   1.363       .  A
C13          N18   1.373       .  A
C13         C603   1.506       .  S
N14          C15   1.363       .  A
C15          N16   1.353       .  A
C15         C595   1.485       .  S
N16        C1349   1.358       .  A
C17        N1348   1.360       .  A
C17        N1350   1.379       .  A
C17         C599   1.503   1_655  S
N18        C1349   1.372       .  A
O19         Cr37   1.959       .  S
O19          C27   1.260       .  A
O20         Cr37   1.999       .  S
O20          C21   1.263       .  A
C21         C556   1.474       .  S
C21          O22   1.261       .  A
O22         Cr38   1.994       .  S
O23         Cr38   2.005       .  S
O23          C24   1.266       .  A
C24         C576   1.482       .  S
C24          O25   1.257       .  A
O25         Cr39   1.975       .  S
O26         Cr39   2.037       .  S
O26          C27   1.274       .  A
C27         C566   1.489       .  S
O28         Cr37   1.999       .  S
O28         C702   1.259   1_545  A
O29         Cr37   1.972       .  S
O29          C30   1.259       .  A
C30         C651   1.481       .  S
C30          O31   1.269       .  A
O31         Cr38   2.016       .  S
O32         Cr38   1.979       .  S
O32          C33   1.262       .  A
C33        C1270   1.494       .  S
C33         O700   1.274       .  A
O34        Cr705   2.060       .  S
O34         C699   1.280       .  A
O35        Cr705   1.970       .  S
O35          C36   1.257       .  A
C36         C586   1.474       .  S
C36         O694   1.259       .  A
Cr37         O40   1.776       .  S
Cr38         O40   1.776       .  S
Cr39        O700   2.039       .  S
Cr39        O701   1.966   1_545  S
Cr39         O40   1.779       .  S
O41         Cr59   1.956       .  S
O41          C49   1.261       .  A
O42         Cr59   1.986       .  S
O42          C43   1.259       .  A
C43         C526   1.466       .  S
C43          O44   1.259       .  A
O44         Cr60   1.988       .  S
O45         Cr60   2.017       .  S
O45          C46   1.267       .  A
C46         C536   1.493       .  S
C46          O47   1.258       .  A
O47         Cr61   1.978       .  S
O48         Cr61   2.040       .  S
O48          C49   1.276       .  A
C49         C559   1.488       .  S
O50         Cr59   1.992       .  S
O50          C58   1.256       .  A
O51         Cr59   1.968       .  S
O51          C52   1.260       .  A
C52         C546   1.481       .  S
C52          O53   1.273       .  A
O53         Cr60   2.023       .  S
O54         Cr60   1.961       .  S
O54          C55   1.257       .  A
C55         C596   1.482       .  S
C55          O56   1.274       .  A
O56         Cr61   2.032       .  S
O57         Cr61   1.977       .  S
O57          C58   1.257       .  A
C58         C611   1.470       .  S
Cr59         O62   1.774       .  S
Cr60         O62   1.779       .  S
Cr61         O62   1.777       .  S
O63         Cr81   1.952       .  S
O63          C71   1.258       .  A
O64         Cr81   1.994       .  S
O64          C65   1.262       .  A
C65         C569   1.478       .  S
C65          O66   1.262       .  A
O66         Cr82   2.000   1_545  S
O67         Cr82   2.013   1_545  S
O67          C68   1.266       .  A
C68         C516   1.477       .  S
C68          O69   1.255       .  A
O69         Cr83   1.960       .  S
O70         Cr83   2.024       .  S
O70          C71   1.270       .  A
C71         C529   1.477       .  S
O72         Cr81   1.999       .  S
O72          C80   1.260       .  A
O73         Cr81   1.962       .  S
O73         C740   1.258   1_545  A
C74         C621   1.471       .  S
C74          O75   1.269       .  A
C74         O739   1.258       .  A
O75        Cr748   2.006       .  S
O76        Cr748   2.024       .  S
O76         C743   1.272       .  A
C77        C1266   1.486       .  S
C77          O78   1.270   1_565  A
C77         O742   1.263       .  A
O78         Cr83   2.024       .  S
O79         Cr83   1.963       .  S
O79          C80   1.256       .  A
C80         C641   1.465       .  S
Cr81         O84   1.771       .  S
Cr82        O741   2.017       .  S
Cr82        O742   1.980       .  S
Cr82         O84   1.775   1_565  S
Cr83         O84   1.774       .  S
C85          N86   1.367       .  A
C85          N90   1.370       .  A
C85         C506   1.489       .  S
N86          C87   1.358       .  A
C87          N88   1.347       .  A
C87         C549   1.474       .  S
N88          C89   1.350       .  A
C89          N90   1.362       .  A
C89         C589   1.483       .  S
C91          N92   1.368       .  A
C91          N96   1.369       .  A
C91         C496   1.488       .  S
N92          C93   1.359       .  A
C93          N94   1.346       .  A
C93         C476   1.477       .  S
N94          C95   1.346       .  A
C95          N96   1.360       .  A
C95         C486   1.481       .  S
C97          N98   1.368       .  A
C97         N102   1.366       .  A
C97         C466   1.486       .  S
N98          C99   1.361       .  A
C99         N100   1.349       .  A
C99         C446   1.476       .  S
N100        C101   1.348       .  A
C101        N102   1.359       .  A
C101        C456   1.474       .  S
C103        N104   1.349       .  A
C103        N108   1.360       .  A
C103        C442   1.478       .  S
N104        C105   1.352       .  A
C105        N106   1.374       .  A
C105        C433   1.489       .  S
N106        C107   1.377       .  A
C107        N108   1.365       .  A
C107        C437   1.503       .  S
O109      Cr1459   1.992       .  S
O109        C117   1.264       .  A
O110       Cr127   1.967       .  S
O110        C111   1.260       .  A
C111        C424   1.476       .  S
C111        O112   1.267       .  A
O112       Cr128   2.009       .  S
O113       Cr128   1.984       .  S
O113        C114   1.261       .  A
C114        C628   1.481       .  S
C114        O115   1.263       .  A
O115       Cr129   1.996       .  S
O116      Cr1461   1.990       .  S
O116        C117   1.261       .  A
C117        C414   1.473       .  S
O118       Cr127   1.975       .  S
O118        C126   1.259       .  A
O119       Cr127   1.997       .  S
O119        C120   1.261       .  A
C120        C489   1.472       .  S
C120        O121   1.260       .  A
O121       Cr128   1.972       .  S
O122       Cr128   2.009       .  S
O122        C123   1.266       .  A
C123        C441   1.482       .  S
C123        O124   1.266       .  A
O124       Cr129   1.985       .  S
O125       Cr129   2.010       .  S
O125        C126   1.267       .  A
C126        C459   1.476       .  S
Cr127      O1441   1.995   1_455  S
Cr127       O130   1.769       .  S
Cr128       O130   1.771       .  S
Cr129      O1448   1.998   1_455  S
Cr129       O130   1.769       .  S
O131       Cr149   1.961       .  S
O131        C139   1.259       .  A
O132      Cr1481   2.008       .  S
O132        C133   1.264       .  A
C133        C397   1.487       .  S
C133        O134   1.267       .  A
O134      Cr1482   2.011       .  S
O135       Cr150   1.999       .  S
O135        C136   1.265       .  A
C136        C661   1.479       .  S
C136        O137   1.260       .  A
O137       Cr151   1.980       .  S
O138       Cr151   2.007       .  S
O138        C139   1.266       .  A
C139        C427   1.470       .  S
O140       Cr149   2.002       .  S
O140        C148   1.262       .  A
O141       Cr149   1.971       .  S
O141        C142   1.259       .  A
C142        C449   1.474       .  S
C142        O143   1.266       .  A
O143       Cr150   2.002       .  S
O144       Cr150   2.005       .  S
O144        C145   1.270       .  A
C145        C434   1.496       .  S
C145        O146   1.266       .  A
O146       Cr151   2.012       .  S
O147       Cr151   1.969       .  S
O147        C148   1.259       .  A
C148        C404   1.474       .  S
Cr149      O1464   1.994   1_455  S
Cr149       O152   1.771       .  S
Cr150      O1466   2.019   1_455  S
Cr150       O152   1.771       .  S
Cr151       O152   1.776       .  S
O153       Cr171   1.966       .  S
O153        C161   1.262       .  A
O154       Cr171   1.987       .  S
O154        C155   1.262       .  A
C155        C417   1.474       .  S
C155        O156   1.260       .  A
O156       Cr172   1.992       .  S
O157       Cr172   2.004       .  S
O157        C158   1.264       .  A
C158        C509   1.483       .  S
C158        O159   1.258       .  A
O159       Cr173   1.976       .  S
O160       Cr173   2.060       .  S
O160        C161   1.279       .  A
C161        C394   1.504       .  S
O162       Cr171   1.991       .  S
O162        C170   1.256       .  A
O163       Cr171   1.974       .  S
O163        C164   1.260       .  A
C164        C384   1.478       .  S
C164        O165   1.269       .  A
O165       Cr172   2.014       .  S
O166       Cr172   1.976       .  S
O166        C167   1.261       .  A
C167        C438   1.503       .  S
C167        O168   1.279       .  A
O168       Cr173   2.057       .  S
O169       Cr173   1.973       .  S
O169        C170   1.257       .  A
C170        C479   1.464       .  S
Cr171       O174   1.775       .  S
Cr172       O174   1.778       .  S
Cr173       O174   1.776       .  S
C175        N176   1.369       .  A
C175        N180   1.365       .  A
C175        C374   1.485       .  S
N176        C177   1.364       .  A
C177        N178   1.350       .  A
C177        C407   1.483       .  S
N178        C179   1.346       .  A
C179        N180   1.355       .  A
C179        C387   1.469       .  S
C181        N182   1.363       .  A
C181        N186   1.373       .  A
C181        C579   1.488       .  S
N182        C183   1.350   1_556  A
C183        N184   1.344       .  A
C183        C364   1.461       .  S
N184        C185   1.349       .  A
C185        N186   1.368   1_554  A
C185       C1020   1.481       .  S
C187        N188   1.374       .  A
C187        N192   1.370       .  A
C187        C539   1.496       .  S
N188        C189   1.365   1_556  A
C189        N190   1.348       .  A
C189        C344   1.488       .  S
N190        C191   1.346       .  A
C191        N192   1.359   1_554  A
C191        C334   1.482       .  S
C193        N194   1.358       .  A
C193        N198   1.375       .  A
C193        C322   1.495       .  S
N194        C195   1.354       .  A
C195        N196   1.357       .  A
C195        C329   1.479       .  S
N196        C197   1.359       .  A
C197        N198   1.375       .  A
C197        C326   1.497       .  S
O199       Cr217   1.955       .  S
O199        C207   1.260       .  A
O200       Cr217   1.984       .  S
O200        C201   1.259       .  A
C201        C302   1.475       .  S
C201        O202   1.259       .  A
O202      Cr1550   1.992   1_455  S
O203       Cr218   2.010       .  S
O203       C1536   1.266       .  A
C204       C1801   1.483       .  S
C204       O1535   1.265       .  A
C204       O1537   1.258       .  A
O205       Cr219   1.979       .  S
O205       C1536   1.260       .  A
O206      Cr1551   2.024   1_455  S
O206        C207   1.272       .  A
C207        C312   1.477       .  S
O208      Cr1549   2.012       .  S
O208        C216   1.264       .  A
O209      Cr1549   1.962       .  S
O209        C210   1.256       .  A
C210        C367   1.472       .  S
C210        O211   1.266       .  A
O211       Cr218   2.008       .  S
O212       Cr218   1.975       .  S
O212        C213   1.260       .  A
C213        C330   1.478       .  S
C213        O214   1.269       .  A
O214       Cr219   2.015       .  S
O215       Cr219   1.972       .  S
O215        C216   1.260       .  A
C216        C347   1.477       .  S
Cr217      O1540   1.992   1_455  S
Cr217      O1541   1.961   1_455  S
Cr217      O1552   1.771   1_455  S
Cr218      O1534   1.978       .  S
Cr218       O220   1.777       .  S
Cr219      O1538   2.021       .  S
Cr219       O220   1.775       .  S
O220      Cr1549   1.771       .  S
O221       Cr239   1.965       .  S
O221        C229   1.261       .  A
O222       Cr239   1.988       .  S
O222        C223   1.261       .  A
C223        C315   1.462       .  S
C223        O224   1.259       .  A
O224       Cr240   1.985       .  S
O225       Cr240   2.007       .  S
O225        C226   1.267       .  A
C226        C499   1.484       .  S
C226        O227   1.262       .  A
O227       Cr241   1.977       .  S
O228       Cr241   2.064       .  S
O228        C229   1.279       .  A
C229        C282   1.500       .  S
O230       Cr239   1.998       .  S
O230        C238   1.258       .  A
O231       Cr239   1.973       .  S
O231        C232   1.261       .  A
C232        C292   1.479       .  S
C232        O233   1.270       .  A
O233       Cr240   2.013       .  S
O234       Cr240   1.975       .  S
O234        C235   1.259       .  A
C235        C991   1.494       .  S
C235        O236   1.275       .  A
O236       Cr241   2.042       .  S
O237       Cr241   1.970       .  S
O237        C238   1.256       .  A
C238        C357   1.470       .  S
Cr239       O242   1.774       .  S
Cr240       O242   1.774       .  S
Cr241       O242   1.771       .  S
O243       Cr261   1.993       .  S
O243        C251   1.264       .  A
O244       Cr261   1.969       .  S
O244        C245   1.261       .  A
C245        C285   1.499       .  S
C245        O246   1.276       .  A
O246       Cr262   2.057       .  S
O247       Cr262   1.978       .  S
O247        C248   1.260       .  A
C248        C377   1.485       .  S
C248        O249   1.264       .  A
O249       Cr263   2.007       .  S
O250       Cr263   1.984       .  S
O250        C251   1.259       .  A
C251        C305   1.473       .  S
O252       Cr261   1.975       .  S
O252        C260   1.260       .  A
O253       Cr261   2.000       .  S
O253        C254   1.261       .  A
C254        C337   1.472       .  S
C254        O255   1.259       .  A
O255       Cr262   1.972       .  S
O256       Cr262   2.051       .  S
O256        C257   1.279       .  A
C257        C321   1.497       .  S
C257        O258   1.260       .  A
O258       Cr263   1.972       .  S
O259       Cr263   2.012       .  S
O259        C260   1.268       .  A
C260        C275   1.479       .  S
Cr261       O264   1.772       .  S
Cr262       O264   1.772       .  S
Cr263       O264   1.776       .  S
C265        N266   1.367       .  A
C265        N270   1.362       .  A
C265        C519   1.481       .  S
N266        C267   1.360   1_556  A
C267        N268   1.350       .  A
C267        C272   1.470       .  S
N268        C269   1.349       .  A
C269        N270   1.355   1_554  A
C269        C961   1.467       .  S
C271        C272   1.403       .  A
C271        C276   1.391       .  A
C271        H277   1.084       .  S
C272        C273   1.403       .  A
C273        C274   1.403       .  A
C273        H278   1.083   1_554  S
C274        C275   1.409       .  A
C274        H279   1.083       .  S
C275        C276   1.403       .  A
C276        H280   1.083       .  S
C281        C282   1.412       .  A
C281        C286   1.418       .  A
C281        H287   1.083       .  S
C282        C283   1.406       .  A
C283        C284   1.397       .  A
C283        H288   1.083       .  S
C284        C285   1.405       .  A
C284        H289   1.084       .  S
C285        C286   1.411       .  A
C286        H290   1.083       .  S
C291        C292   1.409       .  A
C291        C962   1.402       .  A
C291        H297   1.082       .  S
C292        C293   1.403       .  A
C293        C294   1.392       .  A
C293        H298   1.083       .  S
C294        C295   1.405       .  A
C294        H299   1.083       .  S
C295        C935   1.474       .  S
C295        C962   1.403       .  A
C296        C957   1.398       .  A
C296        C961   1.402   1_565  A
C296        H300   1.084       .  S
C301        C302   1.406       .  A
C301        C306   1.405       .  A
C301        H307   1.083       .  S
C302        C303   1.404       .  A
C303        C304   1.385       .  A
C303        H308   1.083       .  S
C304        C305   1.402       .  A
C304        H309   1.084       .  S
C305        C306   1.407       .  A
C306        H310   1.083       .  S
C311        C312   1.406       .  A
C311        C316   1.389       .  A
C311        H317   1.083       .  S
C312        C313   1.408       .  A
C313        C314   1.403       .  A
C313        H318   1.083       .  S
C314        C315   1.403       .  A
C314        H319   1.083       .  S
C315        C316   1.398       .  A
C316        H320   1.083       .  S
C321        C322   1.344       .  D
C321        H323   1.087       .  S
C322        H324   1.087       .  S
C325        C901   1.497       .  S
C325        C326   1.344       .  D
C325        H327   1.086       .  S
C326        H328   1.087       .  S
C329        C330   1.344       .  D
C329        H331   1.088       .  S
C330        H332   1.088       .  S
C333        C334   1.405       .  A
C333        C338   1.406       .  A
C333        H339   1.083       .  S
C334        C335   1.409       .  A
C335        C336   1.390       .  A
C335        H340   1.083       .  S
C336        C337   1.397       .  A
C336        H341   1.084       .  S
C337        C338   1.408       .  A
C338        H342   1.083       .  S
C343        C344   1.407       .  A
C343        C348   1.411       .  A
C343        H349   1.082   1_554  S
C344        C345   1.410       .  A
C345        C346   1.389       .  A
C345        H350   1.083       .  S
C346        C347   1.397       .  A
C346        H351   1.083       .  S
C347        C348   1.410       .  A
C348        H352   1.083       .  S
C353        C354   1.402       .  A
C353        C358   1.404       .  A
C353        H359   1.083       .  S
C354        C851   1.463       .  S
C354       C1021   1.402       .  A
C355       C1020   1.409       .  A
C355       C1022   1.388       .  A
C355        H360   1.083       .  S
C356        C357   1.400       .  A
C356       C1021   1.386       .  A
C356       H1027   1.083       .  S
C357        C358   1.408       .  A
C358        H362   1.083       .  S
H361       C1022   1.084       .  S
C363        C364   1.401       .  A
C363        C368   1.390       .  A
C363        H369   1.084       .  S
C364        C365   1.401       .  A
C365        C366   1.398       .  A
C365        H370   1.083   1_554  S
C366        C367   1.407       .  A
C366        H371   1.083       .  S
C367        C368   1.403       .  A
C368        H372   1.083       .  S
C373        C374   1.406       .  A
C373        C378   1.403       .  A
C373        H379   1.083       .  S
C374        C375   1.406       .  A
C375        C376   1.395       .  A
C375        H380   1.083       .  S
C376        C377   1.404       .  A
C376        H381   1.083       .  S
C377        C378   1.408       .  A
C378        H382   1.083       .  S
C383        C384   1.408       .  A
C383        C388   1.402       .  A
C383        H389   1.082       .  S
C384        C385   1.403       .  A
C385        C386   1.391       .  A
C385        H390   1.083       .  S
C386        C387   1.403       .  A
C386        H391   1.083       .  S
C387        C388   1.402       .  A
C388        H392   1.084       .  S
C393        C394   1.413       .  A
C393       C1064   1.418       .  A
C393        H399   1.083       .  S
C394        C395   1.409       .  A
C395        C396   1.397       .  A
C395        H400   1.084       .  S
C396       C1063   1.401       .  A
C396        H401   1.079       .  S
C397        C398   1.409       .  A
C397       C1062   1.401       .  A
C398       C1059   1.414       .  A
C398        H402   1.083       .  S
C403        C404   1.408       .  A
C403        C408   1.405       .  A
C403        H409   1.083       .  S
C404        C405   1.398       .  A
C405        C406   1.388       .  A
C405        H410   1.084       .  S
C406        C407   1.409       .  A
C406        H411   1.083       .  S
C407        C408   1.405       .  A
C408        H412   1.083       .  S
C413        C414   1.401       .  A
C413        C418   1.385       .  A
C413        H419   1.084       .  S
C414        C415   1.407       .  A
C415        C416   1.407       .  A
C415        H420   1.083       .  S
C416        C417   1.407       .  A
C416        H421   1.083       .  S
C417        C418   1.402       .  A
C418        H422   1.084       .  S
C423        C424   1.406       .  A
C423       C1094   1.399       .  A
C423        H429   1.083       .  S
C424        C425   1.404       .  A
C425        C426   1.392       .  A
C425        H430   1.083       .  S
C426       C1093   1.405       .  A
C426        H431   1.083       .  S
C427        C428   1.406       .  A
C427       C1092   1.402   1_545  A
C428       C1089   1.399   1_545  A
C428        H432   1.083       .  S
C433        C434   1.343       .  D
C433        H435   1.087       .  S
C434        H436   1.086       .  S
C437        C438   1.348       .  D
C437        H439   1.086       .  S
C438        H440   1.086       .  S
C441        C442   1.341       .  D
C441        H443   1.087       .  S
C442        H444   1.087       .  S
C445        C450   1.399       .  A
C445       C1778   1.403       .  A
C445        H451   1.083       .  S
C446        C447   1.405       .  A
C446       C1777   1.404       .  A
C447        C448   1.390       .  A
C447        H452   1.083       .  S
C448       C1781   1.402       .  A
C448        H453   1.083       .  S
C449        C450   1.407       .  A
C449       C1780   1.403   1_455  A
C450        H454   1.083       .  S
C455        C456   1.406       .  A
C455        C460   1.392       .  A
C455        H461   1.083       .  S
C456       C1789   1.402       .  A
C457        C458   1.401       .  A
C457       C1788   1.402       .  A
C457        H462   1.083       .  S
C458        C459   1.408       .  A
C458        H463   1.083       .  S
C459       C1792   1.403   1_455  A
C460       C1791   1.402       .  A
C460        H464   1.084       .  S
C465        C466   1.407       .  A
C465        C470   1.399       .  A
C465        H471   1.083       .  S
C466       C1799   1.406       .  A
C467        C468   1.399       .  A
C467       C1798   1.407       .  A
C467        H472   1.083       .  S
C468       C1801   1.405       .  A
C468        H473   1.083       .  S
C469       C1536   1.485       .  S
C469        C470   1.406       .  A
C469       C1800   1.406       .  A
C470        H474   1.083       .  S
C475        C476   1.408       .  A
C475        C480   1.388       .  A
C475        H481   1.083       .  S
C476        C477   1.405       .  A
C477        C478   1.404       .  A
C477        H482   1.083       .  S
C478        C479   1.406       .  A
C478        H483   1.083       .  S
C479        C480   1.395       .  A
C480        H484   1.083       .  S
C485        C486   1.409       .  A
C485        C490   1.388       .  A
C485        H491   1.083       .  S
C486        C487   1.405       .  A
C487        C488   1.404       .  A
C487        H492   1.083       .  S
C488        C489   1.408       .  A
C488        H493   1.083       .  S
C489        C490   1.397       .  A
C490        H494   1.083       .  S
C495        C496   1.407       .  A
C495        C500   1.399       .  A
C495        H501   1.083       .  S
C496        C497   1.408       .  A
C497        C498   1.400       .  A
C497        H502   1.083       .  S
C498        C499   1.406       .  A
C498        H503   1.083       .  S
C499        C500   1.406       .  A
C500        H504   1.083       .  S
C505        C506   1.408       .  A
C505        C510   1.398       .  A
C505        H511   1.083       .  S
C506        C507   1.407       .  A
C507        C508   1.401       .  A
C507        H512   1.083       .  S
C508        C509   1.406       .  A
C508        H513   1.083       .  S
C509        C510   1.404       .  A
C510        H514   1.083       .  S
C515        C516   1.406       .  A
C515        C520   1.395       .  A
C515        H521   1.084       .  S
C516        C517   1.403       .  A
C517        C518   1.399       .  A
C517        H522   1.083   1_545  S
C518        C519   1.409       .  A
C518       H1189   1.083   1_545  S
C519        C520   1.403       .  A
C520        H524   1.083       .  S
H523       C1184   1.083       .  S
C525        C526   1.404       .  A
C525        C530   1.405       .  A
C525        H531   1.083       .  S
C526        C527   1.399       .  A
C527        C528   1.385       .  A
C527        H532   1.084       .  S
C528        C529   1.405       .  A
C528        H533   1.082       .  S
C529        C530   1.408       .  A
C530        H534   1.083       .  S
C535        C536   1.405       .  A
C535        C540   1.402       .  A
C535        H541   1.083       .  S
C536        C537   1.409       .  A
C537        C538   1.404       .  A
C537        H542   1.083       .  S
C538        C539   1.407       .  A
C538        H543   1.083       .  S
C539        C540   1.410       .  A
C540        H544   1.083       .  S
C545        C546   1.410       .  A
C545        C550   1.403       .  A
C545        H551   1.083       .  S
C546        C547   1.402       .  A
C547        C548   1.392       .  A
C547        H552   1.083       .  S
C548        C549   1.405       .  A
C548        H553   1.083       .  S
C549        C550   1.402       .  A
C550        H554   1.084       .  S
C555        C556   1.406       .  A
C555        C560   1.409       .  A
C555        H561   1.083       .  S
C556        C557   1.399       .  A
C557        C558   1.391       .  A
C557        H562   1.084       .  S
C558        C559   1.408       .  A
C558        H563   1.083       .  S
C559        C560   1.409       .  A
C560        H564   1.083       .  S
C565        C566   1.410   1_565  A
C565        C570   1.411       .  A
C565       H1237   1.083       .  S
C566        C567   1.406       .  A
C567        C568   1.390       .  A
C567        H572   1.083       .  S
C568        C569   1.400       .  A
C568        H573   1.083       .  S
C569        C570   1.407   1_545  A
C570       H1240   1.083       .  S
H571       C1231   1.083       .  S
H574       C1236   1.082       .  S
C575        C576   1.401       .  A
C575        C580   1.393       .  A
C575        H581   1.083       .  S
C576        C577   1.409       .  A
C577        C578   1.405       .  A
C577        H582   1.083   1_545  S
C578        C579   1.406       .  A
C578        H583   1.083       .  S
C579        C580   1.409       .  A
C580        H584   1.083       .  S
C585        C586   1.398       .  A
C585        C590   1.388       .  A
C585        H591   1.084       .  S
C586        C587   1.408       .  A
C587        C588   1.407       .  A
C587        H592   1.083       .  S
C588        C589   1.406       .  A
C588        H593   1.083       .  S
C589        C590   1.408       .  A
C590        H594   1.083       .  S
C595        C596   1.341       .  D
C595        H597   1.087       .  S
C596        H598   1.088       .  S
C599        C600   1.347       .  D
C599        H601   1.086       .  S
C600        C743   1.505       .  S
C600       H1268   1.086       .  S
H602       C1266   1.087       .  S
C603        C604   1.349       .  D
C603        H605   1.086       .  S
C604        C699   1.503       .  S
C604       H1272   1.086       .  S
H606       C1270   1.086       .  S
C607        C612   1.404       .  A
C607       C1940   1.405       .  A
C607        H613   1.083       .  S
C608        C609   1.408       .  A
C608       C1939   1.403   1_455  A
C609       C1942   1.389   1_455  A
C609        H614   1.084       .  S
C610        C611   1.397       .  A
C610       C1941   1.391       .  A
C610        H615   1.084       .  S
C611        C612   1.407       .  A
C612        H616   1.083       .  S
C617        C618   1.402       .  A
C617        C622   1.401       .  A
C617        H623   1.084       .  S
C618        C619   1.403       .  A
C619        C620   1.385       .  A
C619        H624   1.083       .  S
C620        C621   1.401       .  A
C620        H625   1.084       .  S
C621        C622   1.408       .  A
C622        H626   1.083       .  S
C627        C628   1.404       .  A
C627        C632   1.399       .  A
C627        H633   1.083       .  S
C628        C629   1.407       .  A
C629        C630   1.397       .  A
C629        H634   1.083       .  S
C630        C631   1.404       .  A
C630        H635   1.083       .  S
C631        C632   1.409       .  A
C632        H636   1.083       .  S
C637        C638   1.408       .  A
C637        C642   1.388       .  A
C637        H643   1.083       .  S
C638        C639   1.405       .  A
C639        C640   1.403       .  A
C639        H644   1.083       .  S
C640        C641   1.405       .  A
C640        H645   1.083       .  S
C641        C642   1.397       .  A
C642        H646   1.084       .  S
C647        C648   1.404   1_455  A
C647       C1984   1.391   1_455  A
C647        H653   1.083       .  S
C648       C1981   1.402       .  A
C649        C650   1.403       .  A
C649       C1980   1.402       .  A
C649        H654   1.083       .  S
C650        C651   1.410       .  A
C650        H655   1.083       .  S
C651        C652   1.403       .  A
C652       C1979   1.393       .  A
C652        H656   1.083       .  S
C657        C658   1.406       .  A
C657        C662   1.394       .  A
C657        H663   1.083       .  S
C658        C659   1.407       .  A
C659        C660   1.402       .  A
C659        H664   1.083       .  S
C660        C661   1.406       .  A
C660        H665   1.083       .  S
C661        C662   1.404       .  A
C662        H666   1.083       .  S
C667        N668   1.366       .  A
C667        N672   1.370       .  A
C667       C1324   1.485       .  S
N668        C669   1.355       .  A
C669        N670   1.344       .  A
C669       C1314   1.466   1_455  S
N670        C671   1.348       .  A
C671        N672   1.364       .  A
C671       C1304   1.480       .  S
C673        N674   1.365       .  A
C673        N678   1.371       .  A
C673       C1297   1.485       .  S
N674        C675   1.355       .  A
C675        N676   1.346       .  A
C675       C1284   1.470       .  S
N676        C677   1.349       .  A
C677        N678   1.364       .  A
C677       C1274   1.485   1_455  S
C679        N680   1.365       .  A
C679        N684   1.367       .  A
C679       C1269   1.497       .  S
N680        C681   1.365       .  A
C681        N682   1.355       .  A
C681       C1261   1.489       .  S
N682       C2015   1.360       .  A
C683       N2014   1.362   1_455  A
C683       N2016   1.366   1_455  A
C683       C1265   1.492       .  S
N684       C2015   1.364       .  A
O685       Cr703   1.970       .  S
O685        C693   1.263       .  A
O686       Cr703   2.000       .  S
O686        C687   1.266       .  A
C687       C1222   1.479       .  S
C687        O688   1.262       .  A
O688       Cr704   1.991       .  S
O689       Cr704   2.001       .  S
O689        C690   1.263       .  A
C690       C1242   1.482       .  S
C690        O691   1.256       .  A
O691       Cr705   1.974       .  S
O692       Cr705   2.052       .  S
O692        C693   1.277       .  A
C693       C1232   1.498       .  S
O694       Cr703   1.999       .  S
O695       Cr703   1.978       .  S
O695        C696   1.259       .  A
C696       C1317   1.479       .  S
C696        O697   1.266       .  A
O697       Cr704   2.006       .  S
O698       Cr704   1.974       .  S
O698        C699   1.261       .  A
O701        C702   1.257       .  A
C702       C1252   1.467       .  S
Cr703       O706   1.779       .  S
Cr704       O706   1.782       .  S
Cr705       O706   1.778       .  S
O707       Cr725   1.943       .  S
O707        C715   1.257       .  A
O708       Cr725   1.986       .  S
O708        C709   1.260       .  A
C709       C1192   1.461       .  S
C709        O710   1.258       .  A
O710       Cr726   1.979       .  S
O711       Cr726   2.008       .  S
O711        C712   1.265       .  A
C712       C1202   1.490       .  S
C712        O713   1.258       .  A
O713       Cr727   1.983       .  S
O714       Cr727   2.048       .  S
O714        C715   1.276       .  A
C715       C1225   1.486       .  S
O716       Cr725   1.990       .  S
O716        C724   1.257       .  A
O717       Cr725   1.964       .  S
O717        C718   1.259       .  A
C718       C1212   1.478       .  S
C718        O719   1.271       .  A
O719       Cr726   2.023       .  S
O720       Cr726   1.956       .  S
O720        C721   1.258       .  A
C721       C1262   1.484       .  S
C721        O722   1.278       .  A
O722       Cr727   2.047       .  S
O723       Cr727   1.976       .  S
O723        C724   1.259       .  A
C724       C1277   1.470       .  S
Cr725       O728   1.771       .  S
Cr726       O728   1.774       .  S
Cr727       O728   1.775       .  S
O729       Cr747   1.957       .  S
O729        C737   1.259       .  A
O730       Cr747   1.992       .  S
O730        C731   1.261       .  A
C731       C1235   1.506       .  S
C731        O732   1.271       .  A
O732       Cr748   2.038       .  S
O733       Cr748   2.007       .  S
O733        C734   1.266       .  A
C734       C1182   1.485       .  S
C734        O735   1.260       .  A
O735       Cr749   1.978       .  S
O736       Cr749   2.008       .  S
O736        C737   1.268       .  A
C737       C1195   1.470       .  S
O738       Cr747   1.992       .  S
O738        C746   1.258       .  A
O739       Cr747   1.965       .  S
C740       C1287   1.476       .  S
C740        O741   1.271       .  A
C743        O744   1.266       .  A
O744       Cr749   2.009       .  S
O745       Cr749   1.977       .  S
O745        C746   1.259       .  A
C746       C1307   1.471       .  S
Cr747       O750   1.774       .  S
Cr748       O750   1.771       .  S
Cr749       O750   1.775       .  S
C751        N752   1.365       .  A
C751        N756   1.366       .  A
C751       C1172   1.484       .  S
N752        C753   1.357       .  A
C753        N754   1.348       .  A
C753       C1215   1.470       .  S
N754        C755   1.351       .  A
C755        N756   1.361       .  A
C755       C1255   1.478       .  S
C757        N758   1.369       .  A
C757        N762   1.370       .  A
C757       C1162   1.490       .  S
N758        C759   1.360       .  A
C759        N760   1.346       .  A
C759       C1142   1.478       .  S
N760        C761   1.346       .  A
C761        N762   1.361       .  A
C761       C1152   1.481       .  S
C763        N764   1.365       .  A
C763        N768   1.365       .  A
C763       C1132   1.482       .  S
N764        C765   1.360       .  A
C765        N766   1.351       .  A
C765       C1112   1.474       .  S
N766        C767   1.350       .  A
C767        N768   1.358       .  A
C767       C1122   1.469       .  S
C769        N770   1.356       .  A
C769        N774   1.349       .  A
C769       C1108   1.472       .  S
N770        C771   1.356       .  A
C771        N772   1.375       .  A
C771       C1099   1.495       .  S
N772        C773   1.376       .  A
C773        N774   1.354       .  A
C773       C1103   1.488       .  S
O775      Cr2125   1.983       .  S
O775        C783   1.261       .  A
O776       Cr793   1.945       .  S
O776        C777   1.256       .  A
C777       C1090   1.469       .  S
C777        O778   1.271       .  A
O778       Cr794   2.022       .  S
O779       Cr794   1.984       .  S
O779        C780   1.261       .  A
C780       C1294   1.486       .  S
C780        O781   1.264       .  A
O781       Cr795   2.004       .  S
O782      Cr2127   1.976       .  S
O782        C783   1.257       .  A
C783       C1080   1.459       .  S
O784       Cr793   1.956       .  S
O784        C792   1.257       .  A
O785       Cr793   1.994       .  S
O785        C786   1.258       .  A
C786       C1155   1.470       .  S
C786        O787   1.260       .  A
O787       Cr794   1.977       .  S
O788       Cr794   2.017       .  S
O788        C789   1.272       .  A
C789       C1107   1.468       .  S
C789        O790   1.258       .  A
O790       Cr795   1.956       .  S
O791       Cr795   2.014       .  S
O791        C792   1.269       .  A
C792       C1125   1.468       .  S
Cr793      O2107   1.985   1_455  S
Cr793       O796   1.766       .  S
Cr794       O796   1.767       .  S
Cr795      O2114   1.979   1_455  S
Cr795       O796   1.772       .  S
O797       Cr815   1.963       .  S
O797        C805   1.259       .  A
O798      Cr2147   2.002       .  S
O798        C799   1.263       .  A
C799       C1063   1.492       .  S
C799        O800   1.268       .  A
O800      Cr2148   2.020       .  S
O801       Cr816   1.999       .  S
O801        C802   1.265       .  A
C802       C1327   1.483       .  S
C802        O803   1.260       .  A
O803       Cr817   1.984       .  S
O804       Cr817   2.012       .  S
O804        C805   1.267       .  A
C805       C1093   1.476       .  S
O806       Cr815   2.000       .  S
O806        C814   1.261       .  A
O807       Cr815   1.969       .  S
O807        C808   1.258       .  A
C808       C1115   1.475       .  S
C808        O809   1.267       .  A
O809       Cr816   2.007       .  S
O810       Cr816   2.015       .  S
O810        C811   1.272       .  A
C811       C1100   1.499       .  S
C811        O812   1.267       .  A
O812       Cr817   2.012       .  S
O813       Cr817   1.972       .  S
O813        C814   1.259       .  A
C814       C1070   1.473       .  S
Cr815      O2130   1.993       .  S
Cr815       O818   1.773       .  S
Cr816      O2132   2.028       .  S
Cr816       O818   1.773       .  S
Cr817       O818   1.776       .  S
O819       Cr837   1.968       .  S
O819        C827   1.260       .  A
O820       Cr837   1.987       .  S
O820        C821   1.264       .  A
C821       C1083   1.460       .  S
C821        O822   1.258       .  A
O822       Cr838   1.971       .  S
O823       Cr838   2.005       .  S
O823        C824   1.264       .  A
C824       C1175   1.483       .  S
C824        O825   1.257       .  A
O825       Cr839   1.977       .  S
O826       Cr839   2.054       .  S
O826        C827   1.277       .  A
C827       C1060   1.496       .  S
O828       Cr837   1.996       .  S
O828        C836   1.259       .  A
O829       Cr837   1.979       .  S
O829        C830   1.260       .  A
C830       C1050   1.479       .  S
C830        O831   1.267       .  A
O831       Cr838   2.008       .  S
O832       Cr838   1.961       .  S
O832        C833   1.257       .  A
C833       C1104   1.490       .  S
C833        O834   1.280       .  A
O834       Cr839   2.053       .  S
O835       Cr839   1.968       .  S
O835        C836   1.258       .  A
C836       C1145   1.467       .  S
Cr837       O840   1.771       .  S
Cr838       O840   1.775       .  S
Cr839       O840   1.771       .  S
C841        N842   1.368       .  A
C841        N846   1.364       .  A
C841       C1040   1.485       .  S
N842        C843   1.363       .  A
C843        N844   1.352       .  A
C843       C1073   1.481       .  S
N844        C845   1.348       .  A
C845        N846   1.354       .  A
C845       C1053   1.471       .  S
C847        N848   1.366       .  A
C847        N852   1.367       .  A
C847       C1245   1.484       .  S
N848        C849   1.357   1_556  A
C849        N850   1.346       .  A
C849       C1030   1.467       .  S
N850        C851   1.348       .  A
C851        N852   1.359   1_554  A
C853        N854   1.373       .  A
C853        N858   1.366       .  A
C853       C1205   1.492       .  S
N854        C855   1.368   1_556  A
C855        N856   1.350       .  A
C855       C1010   1.490       .  S
N856        C857   1.345       .  A
C857        N858   1.354   1_554  A
C857       C1000   1.472       .  S
C859        N860   1.368       .  A
C859        N864   1.369       .  A
C859        C988   1.504       .  S
N860        C861   1.365       .  A
C861        N862   1.360       .  A
C861        C995   1.495       .  S
N862        C863   1.358       .  A
C863        N864   1.368       .  A
C863        C992   1.495       .  S
O865       Cr883   1.968       .  S
O865        C873   1.259       .  A
O866       Cr883   1.995       .  S
O866        C867   1.264       .  A
C867        C968   1.484       .  S
C867        O868   1.266       .  A
O868      Cr2216   2.010   1_455  S
O869       Cr884   2.007       .  S
O869       C2202   1.265       .  A
C870       C2467   1.476       .  S
C870       O2201   1.261       .  A
C870       O2203   1.260       .  A
O871       Cr885   1.977       .  S
O871       C2202   1.258       .  A
O872      Cr2217   1.998   1_455  S
O872        C873   1.263       .  A
C873        C978   1.474       .  S
O874      Cr2215   2.007       .  S
O874        C882   1.261       .  A
O875      Cr2215   1.961       .  S
O875        C876   1.258       .  A
C876       C1033   1.477       .  S
C876        O877   1.271       .  A
O877       Cr884   2.020       .  S
O878       Cr884   1.980       .  S
O878        C879   1.263       .  A
C879        C996   1.488       .  S
C879        O880   1.271       .  A
O880       Cr885   2.028       .  S
O881       Cr885   1.974       .  S
O881        C882   1.259       .  A
C882       C1013   1.479       .  S
Cr883      O2206   1.998   1_455  S
Cr883      O2207   1.976   1_455  S
Cr883      O2218   1.774   1_455  S
Cr884      O2200   2.004       .  S
Cr884       O886   1.774       .  S
Cr885      O2204   2.026       .  S
Cr885       O886   1.777       .  S
O886      Cr2215   1.772       .  S
O887       Cr905   1.949       .  S
O887        C895   1.258       .  A
O888       Cr905   1.984       .  S
O888        C889   1.260       .  A
C889        C981   1.466       .  S
C889        O890   1.260       .  A
O890       Cr906   1.989       .  S
O891       Cr906   2.006       .  S
O891        C892   1.265       .  A
C892       C1165   1.488       .  S
C892        O893   1.261       .  A
O893       Cr907   1.983       .  S
O894       Cr907   2.065       .  S
O894        C895   1.280       .  A
C895        C948   1.495       .  S
O896       Cr905   1.996       .  S
O896        C904   1.257       .  A
O897       Cr905   1.963       .  S
O897        C898   1.259       .  A
C898        C958   1.472       .  S
C898        O899   1.270       .  A
O899       Cr906   2.012       .  S
O900       Cr906   1.973       .  S
O900        C901   1.260   1_565  A
C901        O902   1.278   1_545  A
O902       Cr907   2.047       .  S
O903       Cr907   1.979       .  S
O903        C904   1.258       .  A
C904       C1023   1.481       .  S
Cr905       O908   1.773       .  S
Cr906       O908   1.777       .  S
Cr907       O908   1.771       .  S
O909       Cr927   1.960       .  S
O909        C917   1.261       .  A
O910       Cr927   2.004       .  S
O910        C911   1.266       .  A
C911        C951   1.496       .  S
C911        O912   1.264       .  A
O912       Cr928   2.008       .  S
O913       Cr928   2.001       .  S
O913        C914   1.265       .  A
C914       C1043   1.481       .  S
C914        O915   1.258       .  A
O915       Cr929   1.976       .  S
O916       Cr929   2.044       .  S
O916        C917   1.275       .  A
C917        C971   1.495       .  S
O918       Cr927   2.005       .  S
O918        C926   1.260       .  A
O919       Cr927   1.968       .  S
O919        C920   1.258       .  A
C920       C1003   1.478       .  S
C920        O921   1.268       .  A
O921       Cr928   2.013       .  S
O922       Cr928   1.987       .  S
O922        C923   1.264       .  A
C923        C987   1.500       .  S
C923        O924   1.274       .  A
O924       Cr929   2.040       .  S
O925       Cr929   1.965       .  S
O925        C926   1.256       .  A
C926        C941   1.473       .  S
Cr927       O930   1.776       .  S
Cr928       O930   1.778       .  S
Cr929       O930   1.783       .  S
C931        N932   1.369       .  A
C931        N936   1.365       .  A
C931       C1185   1.487       .  S
N932        C933   1.363   1_556  A
C933        N934   1.351       .  A
C933        C938   1.483       .  S
N934        C935   1.348       .  A
C935        N936   1.356   1_554  A
C937        C938   1.407       .  A
C937        C942   1.407       .  A
C937        H943   1.083       .  S
C938        C939   1.408       .  A
C939        C940   1.388       .  A
C939        H944   1.083       .  S
C940        C941   1.398       .  A
C940        H945   1.084       .  S
C941        C942   1.408       .  A
C942        H946   1.083       .  S
C947        C948   1.410       .  A
C947        C952   1.418       .  A
C947        H953   1.083       .  S
C948        C949   1.406       .  A
C949        C950   1.390       .  A
C949        H954   1.084       .  S
C950        C951   1.403       .  A
C950        H955   1.083       .  S
C951        C952   1.413       .  A
C952        H956   1.083       .  S
C957        C958   1.407       .  A
C957        H963   1.083       .  S
C958        C959   1.402       .  A
C959        C960   1.390       .  A
C959        H964   1.083       .  S
C960        C961   1.403   1_565  A
C960        H965   1.083   1_565  S
C962        H966   1.083       .  S
C967        C968   1.408       .  A
C967        C972   1.415       .  A
C967        H973   1.083       .  S
C968        C969   1.401       .  A
C969        C970   1.391       .  A
C969        H974   1.084       .  S
C970        C971   1.407       .  A
C970        H975   1.083       .  S
C971        C972   1.412       .  A
C972        H976   1.083       .  S
C977        C978   1.402       .  A
C977        C982   1.389       .  A
C977        H983   1.083       .  S
C978        C979   1.409       .  A
C979        C980   1.401       .  A
C979        H984   1.083       .  S
C980        C981   1.401       .  A
C980        H985   1.083       .  S
C981        C982   1.403       .  A
C982        H986   1.084       .  S
C987        C988   1.355       .  D
C987        H989   1.086       .  S
C988        H990   1.086       .  S
C991        C992   1.346       .  D
C991        H993   1.087       .  S
C992        H994   1.087       .  S
C995        C996   1.353       .  D
C995        H997   1.086       .  S
C996        H998   1.086       .  S
C999       C1000   1.402       .  A
C999       C1004   1.401       .  A
C999       H1005   1.083   1_554  S
C1000      C1001   1.405       .  A
C1001      C1002   1.392       .  A
C1001      H1006   1.083       .  S
C1002      C1003   1.403       .  A
C1002      H1007   1.083       .  S
C1003      C1004   1.409       .  A
C1004      H1008   1.083       .  S
C1009      C1010   1.407       .  A
C1009      C1014   1.410       .  A
C1009      H1015   1.083   1_554  S
C1010      C1011   1.411       .  A
C1011      C1012   1.388       .  A
C1011      H1016   1.083       .  S
C1012      C1013   1.397       .  A
C1012      H1017   1.084       .  S
C1013      C1014   1.410       .  A
C1014      H1018   1.083       .  S
C1019      C1020   1.403   1_565  A
C1019      C1024   1.408       .  A
C1019      H1025   1.083       .  S
C1021      H1026   1.084       .  S
C1022      C1023   1.399   1_545  A
C1023      C1024   1.413       .  A
C1024      H1028   1.083       .  S
C1029      C1030   1.404       .  A
C1029      C1034   1.393       .  A
C1029      H1035   1.084       .  S
C1030      C1031   1.401       .  A
C1031      C1032   1.399       .  A
C1031      H1036   1.083   1_554  S
C1032      C1033   1.409       .  A
C1032      H1037   1.083       .  S
C1033      C1034   1.403       .  A
C1034      H1038   1.083       .  S
C1039      C1040   1.407       .  A
C1039      C1044   1.403       .  A
C1039      H1045   1.083       .  S
C1040      C1041   1.407       .  A
C1041      C1042   1.394       .  A
C1041      H1046   1.083       .  S
C1042      C1043   1.403       .  A
C1042      H1047   1.083       .  S
C1043      C1044   1.407       .  A
C1044      H1048   1.083       .  S
C1049      C1050   1.408       .  A
C1049      C1054   1.402       .  A
C1049      H1055   1.082       .  S
C1050      C1051   1.404       .  A
C1051      C1052   1.392       .  A
C1051      H1056   1.083       .  S
C1052      C1053   1.403       .  A
C1052      H1057   1.083       .  S
C1053      C1054   1.403       .  A
C1054      H1058   1.083       .  S
C1059      C1060   1.409   1_545  A
C1059      H1065   1.083       .  S
C1060      C1061   1.408       .  A
C1061      C1062   1.400   1_565  A
C1061      H1066   1.084       .  S
C1062      H1067   1.083       .  S
C1063      C1064   1.409       .  A
C1064      H1068   1.083       .  S
C1069      C1070   1.408       .  A
C1069      C1074   1.405       .  A
C1069      H1075   1.083       .  S
C1070      C1071   1.398       .  A
C1071      C1072   1.390       .  A
C1071      H1076   1.084       .  S
C1072      C1073   1.408       .  A
C1072      H1077   1.083       .  S
C1073      C1074   1.406       .  A
C1074      H1078   1.083       .  S
C1079      C1080   1.401       .  A
C1079      C1084   1.383       .  A
C1079      H1085   1.084       .  S
C1080      C1081   1.403       .  A
C1081      C1082   1.399       .  A
C1081      H1086   1.083       .  S
C1082      C1083   1.405       .  A
C1082      H1087   1.083       .  S
C1083      C1084   1.400       .  A
C1084      H1088   1.083       .  S
C1089      C1090   1.403       .  A
C1089      H1095   1.083       .  S
C1090      C1091   1.405       .  A
C1091      C1092   1.388       .  A
C1091      H1096   1.084       .  S
C1092      H1097   1.084       .  S
C1093      C1094   1.405       .  A
C1094      H1098   1.083       .  S
C1099      C1100   1.345       .  D
C1099      H1101   1.087       .  S
C1100      H1102   1.086       .  S
C1103      C1104   1.338       .  D
C1103      H1105   1.088       .  S
C1104      H1106   1.088       .  S
C1107      C1108   1.339       .  D
C1107      H1109   1.086       .  S
C1108      H1110   1.086       .  S
C1111      C2444   1.402   1_455  A
C1111      C1116   1.400       .  A
C1111      H1117   1.083       .  S
C1112      C2443   1.404       .  A
C1112      C1113   1.404       .  A
C1113      C1114   1.390       .  A
C1113      H1118   1.083       .  S
C1114      C2447   1.403       .  A
C1114      H1119   1.083       .  S
C1115      C2446   1.402   1_455  A
C1115      C1116   1.408       .  A
C1116      H1120   1.083       .  S
C1121      C1122   1.404       .  A
C1121      C1126   1.393       .  A
C1121      H1127   1.083       .  S
C1122      C2455   1.401       .  A
C1123      C2454   1.400   1_455  A
C1123      C1124   1.395       .  A
C1123      H1128   1.084       .  S
C1124      C1125   1.407       .  A
C1124      H1129   1.083       .  S
C1125      C2458   1.402   1_455  A
C1126      C2457   1.403       .  A
C1126      H1130   1.084       .  S
C1131      C1132   1.405       .  A
C1131      C1136   1.399       .  A
C1131      H1137   1.083       .  S
C1132      C2465   1.405       .  A
C1133      C2464   1.403       .  A
C1133      C1134   1.397       .  A
C1133      H1138   1.083       .  S
C1134      C2467   1.407       .  A
C1134      H1139   1.084       .  S
C1135      C2202   1.485       .  S
C1135      C2466   1.406       .  A
C1135      C1136   1.407       .  A
C1136      H1140   1.083       .  S
C1141      C1142   1.409       .  A
C1141      C1146   1.388       .  A
C1141      H1147   1.083       .  S
C1142      C1143   1.405       .  A
C1143      C1144   1.405       .  A
C1143      H1148   1.082       .  S
C1144      C1145   1.407       .  A
C1144      H1149   1.083       .  S
C1145      C1146   1.396       .  A
C1146      H1150   1.083       .  S
C1151      C1152   1.410       .  A
C1151      C1156   1.388       .  A
C1151      H1157   1.083       .  S
C1152      C1153   1.405       .  A
C1153      C1154   1.405       .  A
C1153      H1158   1.083       .  S
C1154      C1155   1.408       .  A
C1154      H1159   1.083       .  S
C1155      C1156   1.396       .  A
C1156      H1160   1.084       .  S
C1161      C1162   1.407       .  A
C1161      C1166   1.401       .  A
C1161      H1167   1.083       .  S
C1162      C1163   1.408       .  A
C1163      C1164   1.401       .  A
C1163      H1168   1.083       .  S
C1164      C1165   1.406       .  A
C1164      H1169   1.083       .  S
C1165      C1166   1.407       .  A
C1166      H1170   1.083       .  S
C1171      C1172   1.406       .  A
C1171      C1176   1.396       .  A
C1171      H1177   1.083       .  S
C1172      C1173   1.406       .  A
C1173      C1174   1.401       .  A
C1173      H1178   1.083       .  S
C1174      C1175   1.407       .  A
C1174      H1179   1.083       .  S
C1175      C1176   1.405       .  A
C1176      H1180   1.083       .  S
C1181      C1182   1.408       .  A
C1181      C1186   1.402       .  A
C1181      H1187   1.083       .  S
C1182      C1183   1.404       .  A
C1183      C1184   1.398       .  A
C1183      H1188   1.083       .  S
C1184      C1185   1.408       .  A
C1185      C1186   1.406       .  A
C1186      H1190   1.083       .  S
C1191      C1192   1.401       .  A
C1191      C1196   1.399       .  A
C1191      H1197   1.083       .  S
C1192      C1193   1.401       .  A
C1193      C1194   1.387       .  A
C1193      H1198   1.084       .  S
C1194      C1195   1.403       .  A
C1194      H1199   1.083       .  S
C1195      C1196   1.407       .  A
C1196      H1200   1.083       .  S
C1201      C1202   1.404       .  A
C1201      C1206   1.396       .  A
C1201      H1207   1.083       .  S
C1202      C1203   1.410       .  A
C1203      C1204   1.407       .  A
C1203      H1208   1.083       .  S
C1204      C1205   1.407       .  A
C1204      H1209   1.083       .  S
C1205      C1206   1.408       .  A
C1206      H1210   1.083       .  S
C1211      C1212   1.409       .  A
C1211      C1216   1.400       .  A
C1211      H1217   1.083       .  S
C1212      C1213   1.403       .  A
C1213      C1214   1.393       .  A
C1213      H1218   1.083       .  S
C1214      C1215   1.404       .  A
C1214      H1219   1.083       .  S
C1215      C1216   1.402       .  A
C1216      H1220   1.083       .  S
C1221      C1222   1.409       .  A
C1221      C1226   1.412       .  A
C1221      H1227   1.083       .  S
C1222      C1223   1.399       .  A
C1223      C1224   1.386       .  A
C1223      H1228   1.084       .  S
C1224      C1225   1.407       .  A
C1224      H1229   1.083       .  S
C1225      C1226   1.408       .  A
C1226      H1230   1.083       .  S
C1231      C1232   1.412       .  A
C1231      C1236   1.420       .  A
C1232      C1233   1.402       .  A
C1233      C1234   1.395       .  A
C1233      H1238   1.084       .  S
C1234      C1235   1.411       .  A
C1234      H1239   1.083       .  S
C1235      C1236   1.412       .  A
C1241      C1242   1.404       .  A
C1241      C1246   1.396       .  A
C1241      H1247   1.083       .  S
C1242      C1243   1.407       .  A
C1243      C1244   1.400       .  A
C1243      H1248   1.083       .  S
C1244      C1245   1.407       .  A
C1244      H1249   1.083       .  S
C1245      C1246   1.406       .  A
C1246      H1250   1.083       .  S
C1251      C1252   1.397       .  A
C1251      C1256   1.388       .  A
C1251      H1257   1.084       .  S
C1252      C1253   1.406       .  A
C1253      C1254   1.404       .  A
C1253      H1258   1.083       .  S
C1254      C1255   1.406       .  A
C1254      H1259   1.083       .  S
C1255      C1256   1.407       .  A
C1256      H1260   1.083       .  S
C1261      C1262   1.341       .  D
C1261      H1263   1.087       .  S
C1262      H1264   1.088       .  S
C1265      C1266   1.351       .  D
C1265      H1267   1.086   1_565  S
C1269      C1270   1.350   1_565  D
C1269      H1271   1.086       .  S
C1273      C2606   1.405       .  A
C1273      C1278   1.404       .  A
C1273      H1279   1.083       .  S
C1274      C2605   1.406       .  A
C1274      C1275   1.410   1_655  A
C1275      C2608   1.389   1_455  A
C1275      H1280   1.083       .  S
C1276      C2607   1.389       .  A
C1276      C1277   1.396       .  A
C1276      H1281   1.084       .  S
C1277      C1278   1.408       .  A
C1278      H1282   1.083       .  S
C1283      C1284   1.402       .  A
C1283      C1288   1.400       .  A
C1283      H1289   1.084       .  S
C1284      C1285   1.404       .  A
C1285      C1286   1.390       .  A
C1285      H1290   1.083       .  S
C1286      C1287   1.402       .  A
C1286      H1291   1.083       .  S
C1287      C1288   1.409       .  A
C1288      H1292   1.082       .  S
C1293      C1294   1.405       .  A
C1293      C1298   1.399       .  A
C1293      H1299   1.083       .  S
C1294      C1295   1.409       .  A
C1295      C1296   1.401       .  A
C1295      H1300   1.083       .  S
C1296      C1297   1.404       .  A
C1296      H1301   1.083       .  S
C1297      C1298   1.407       .  A
C1298      H1302   1.083       .  S
C1303      C1304   1.410       .  A
C1303      C1308   1.389       .  A
C1303      H1309   1.083       .  S
C1304      C1305   1.403       .  A
C1305      C1306   1.403       .  A
C1305      H1310   1.083       .  S
C1306      C1307   1.409       .  A
C1306      H1311   1.083       .  S
C1307      C1308   1.396       .  A
C1308      H1312   1.084       .  S
C1313      C1314   1.403   1_455  A
C1313      C2650   1.390   1_455  A
C1313      H1319   1.083       .  S
C1314      C2647   1.401       .  A
C1315      C2646   1.403       .  A
C1315      C1316   1.402       .  A
C1315      H1320   1.083       .  S
C1316      C1317   1.408       .  A
C1316      H1321   1.083       .  S
C1317      C1318   1.404       .  A
C1318      C2645   1.391       .  A
C1318      H1322   1.083       .  S
C1323      C1324   1.406       .  A
C1323      C1328   1.394       .  A
C1323      H1329   1.083       .  S
C1324      C1325   1.407       .  A
C1325      C1326   1.405       .  A
C1325      H1330   1.083       .  S
C1326      C1327   1.407       .  A
C1326      H1331   1.083       .  S
C1327      C1328   1.404       .  A
C1328      H1332   1.083       .  S
C1333      N1334   1.367       .  A
C1333      N1338   1.369       .  A
C1333      C1990   1.487       .  S
N1334      C1335   1.356       .  A
C1335      N1336   1.346       .  A
C1335      C1980   1.473       .  S
N1336      C1337   1.350       .  A
C1337      N1338   1.364       .  A
C1337      C1970   1.482       .  S
C1339      N1340   1.365       .  A
C1339      N1344   1.369       .  A
C1339      C1963   1.486       .  S
N1340      C1341   1.356       .  A
C1341      N1342   1.347       .  A
C1341      C1950   1.466       .  S
N1342      C1343   1.349       .  A
C1343      N1344   1.363       .  A
C1343      C1940   1.480       .  S
C1345      N1346   1.355       .  A
C1345      N1350   1.378       .  A
C1345      C1935   1.496       .  S
N1346      C1347   1.350       .  A
C1347      N1348   1.357       .  A
C1347      C1927   1.477       .  S
C1349      C1931   1.500       .  S
O1351     Cr1369   1.953       .  S
O1351      C1359   1.258       .  A
O1352     Cr1369   1.984       .  S
O1352      C1353   1.261       .  A
C1353      C1888   1.462       .  S
C1353      O1354   1.259       .  A
O1354     Cr1370   1.983       .  S
O1355     Cr1370   2.012       .  S
O1355      C1356   1.265       .  A
C1356      C1908   1.486       .  S
C1356      O1357   1.257       .  A
O1357     Cr1371   1.975   1_545  S
O1358     Cr1371   2.046       .  S
O1358      C1359   1.276   1_565  A
C1359      C1898   1.489       .  S
O1360     Cr1369   1.995       .  S
O1360      C2034   1.258   1_545  A
O1361     Cr1369   1.964       .  S
O1361      C1362   1.259       .  A
C1362      C1983   1.475       .  S
C1362      O1363   1.270       .  A
O1363     Cr1370   2.018       .  S
O1364     Cr1370   1.963       .  S
O1364      C1365   1.259       .  A
C1365      C2602   1.486   1_545  S
C1365      O2032   1.277   1_545  A
O1366     Cr2037   2.055       .  S
O1366      C2031   1.281       .  A
O1367     Cr2037   1.971       .  S
O1367      C1368   1.258       .  A
C1368      C1918   1.472       .  S
C1368      O2026   1.259       .  A
Cr1369     O1372   1.772       .  S
Cr1370     O1372   1.775       .  S
Cr1371     O2032   2.044       .  S
Cr1371     O2033   1.971       .  S
Cr1371     O1372   1.770   1_565  S
O1373     Cr1391   1.960       .  S
O1373      C1381   1.259       .  A
O1374     Cr1391   1.991       .  S
O1374      C1375   1.262       .  A
C1375      C1858   1.472       .  S
C1375      O1376   1.262       .  A
O1376     Cr1392   1.995       .  S
O1377     Cr1392   1.995       .  S
O1377      C1378   1.263       .  A
C1378      C1868   1.481       .  S
C1378      O1379   1.258       .  A
O1379     Cr1393   1.983       .  S
O1380     Cr1393   2.001       .  S
O1380      C1381   1.265       .  A
C1381      C1891   1.469       .  S
O1382     Cr1391   1.996       .  S
O1382      C1390   1.259       .  A
O1383     Cr1391   1.974       .  S
O1383      C1384   1.259       .  A
C1384      C1878   1.479       .  S
C1384      O1385   1.268       .  A
O1385     Cr1392   2.009       .  S
O1386     Cr1392   1.981       .  S
O1386      C1387   1.265       .  A
C1387      C1928   1.477       .  S
C1387      O1388   1.267       .  A
O1388     Cr1393   2.006       .  S
O1389     Cr1393   1.974       .  S
O1389      C1390   1.260       .  A
C1390      C1943   1.472       .  S
Cr1391     O1394   1.773       .  S
Cr1392     O1394   1.774       .  S
Cr1393     O1394   1.776       .  S
O1395     Cr1413   1.952       .  S
O1395      C1403   1.258       .  A
O1396     Cr1413   2.004       .  S
O1396      C1397   1.264       .  A
C1397      C1901   1.474       .  S
C1397      O1398   1.261       .  A
O1398     Cr1414   1.990   1_545  S
O1399     Cr1414   2.013   1_545  S
O1399      C1400   1.268       .  A
C1400      C1848   1.484       .  S
C1400      O1401   1.258       .  A
O1401     Cr1415   1.974       .  S
O1402     Cr1415   2.032       .  S
O1402      C1403   1.271       .  A
C1403      C1861   1.483       .  S
O1404     Cr1413   2.003       .  S
O1404      C1412   1.261       .  A
O1405     Cr1413   1.964       .  S
O1405      C2072   1.256   1_545  A
C1406      C1953   1.474       .  S
C1406      O2071   1.258       .  A
C1406      O1407   1.270       .  A
O1407     Cr2080   2.016       .  S
O1408     Cr2080   1.992       .  S
O1408      C2075   1.266       .  A
C1409      C2598   1.481       .  S
C1409      O2074   1.261       .  A
C1409      O1410   1.270   1_565  A
O1410     Cr1415   2.026       .  S
O1411     Cr1415   1.965       .  S
O1411      C1412   1.257       .  A
C1412      C1973   1.471       .  S
Cr1413     O1416   1.772       .  S
Cr1414     O2073   2.021       .  S
Cr1414     O2074   1.972       .  S
Cr1414     O1416   1.775   1_565  S
Cr1415     O1416   1.779       .  S
C1417      N1418   1.366       .  A
C1417      N1422   1.370       .  A
C1417      C1838   1.488       .  S
N1418      C1419   1.357       .  A
C1419      N1420   1.347       .  A
C1419      C1881   1.474       .  S
N1420      C1421   1.350       .  A
C1421      N1422   1.363       .  A
C1421      C1921   1.483       .  S
C1423      N1424   1.370       .  A
C1423      N1428   1.373       .  A
C1423      C1828   1.493       .  S
N1424      C1425   1.360       .  A
C1425      N1426   1.347       .  A
C1425      C1808   1.484       .  S
N1426      C1427   1.347       .  A
C1427      N1428   1.363       .  A
C1427      C1818   1.486       .  S
C1429      N1430   1.364       .  A
C1429      N1434   1.365       .  A
C1429      C1798   1.484   1_455  S
N1430      C1431   1.358       .  A
C1431      N1432   1.350       .  A
C1431      C1778   1.471       .  S
N1432      C1433   1.350       .  A
C1433      N1434   1.358       .  A
C1433      C1788   1.466       .  S
C1435      N1436   1.359       .  A
C1435      N1440   1.355       .  A
C1435      C1774   1.487       .  S
N1436      C1437   1.362       .  A
C1437      N1438   1.375       .  A
C1437      C1765   1.502       .  S
N1438      C1439   1.376       .  A
C1439      N1440   1.359       .  A
C1439      C1769   1.498       .  S
O1441      C1449   1.264       .  A
O1442     Cr1459   1.957       .  S
O1442      C1443   1.259       .  A
C1443      C1756   1.485       .  S
C1443      O1444   1.271       .  A
O1444     Cr1460   2.031       .  S
O1445     Cr1460   1.981       .  S
O1445      C1446   1.259       .  A
C1446      C1960   1.485       .  S
C1446      O1447   1.263       .  A
O1447     Cr1461   2.005       .  S
O1448      C1449   1.263       .  A
C1449      C1746   1.480       .  S
O1450     Cr1459   1.967       .  S
O1450      C1458   1.258       .  A
O1451     Cr1459   2.001       .  S
O1451      C1452   1.260       .  A
C1452      C1821   1.476       .  S
C1452      O1453   1.260       .  A
O1453     Cr1460   1.974       .  S
O1454     Cr1460   2.029       .  S
O1454      C1455   1.274       .  A
C1455      C1773   1.484       .  S
C1455      O1456   1.262       .  A
O1456     Cr1461   1.973       .  S
O1457     Cr1461   2.015       .  S
O1457      C1458   1.269       .  A
C1458      C1791   1.478       .  S
Cr1459     O1462   1.772       .  S
Cr1460     O1462   1.773       .  S
Cr1461     O1462   1.779       .  S
O1463     Cr1481   1.967       .  S
O1463      C1471   1.259       .  A
O1464      C1465   1.264       .  A
C1465      C1729   1.492       .  S
C1465      O1466   1.268       .  A
O1467     Cr1482   2.006       .  S
O1467      C1468   1.267       .  A
C1468      C1993   1.488       .  S
C1468      O1469   1.261       .  A
O1469     Cr1483   1.986       .  S
O1470     Cr1483   2.026       .  S
O1470      C1471   1.268       .  A
C1471      C1759   1.485       .  S
O1472     Cr1481   2.007       .  S
O1472      C1480   1.263       .  A
O1473     Cr1481   1.973       .  S
O1473      C1474   1.258       .  A
C1474      C1781   1.479       .  S
C1474      O1475   1.267       .  A
O1475     Cr1482   2.008       .  S
O1476     Cr1482   2.009       .  S
O1476      C1477   1.269       .  A
C1477      C1766   1.505       .  S
C1477      O1478   1.270       .  A
O1478     Cr1483   2.025       .  S
O1479     Cr1483   1.968       .  S
O1479      C1480   1.259       .  A
C1480      C1736   1.473       .  S
Cr1481     O1484   1.778       .  S
Cr1482     O1484   1.775       .  S
Cr1483     O1484   1.781       .  S
O1485     Cr1503   1.963       .  S
O1485      C1493   1.262       .  A
O1486     Cr1503   2.002       .  S
O1486      C1487   1.266       .  A
C1487      C1749   1.480       .  S
C1487      O1488   1.261       .  A
O1488     Cr1504   1.990       .  S
O1489     Cr1504   2.007       .  S
O1489      C1490   1.265       .  A
C1490      C1841   1.486       .  S
C1490      O1491   1.258       .  A
O1491     Cr1505   1.979       .  S
O1492     Cr1505   2.055       .  S
O1492      C1493   1.277       .  A
C1493      C1726   1.502       .  S
O1494     Cr1503   2.003       .  S
O1494      C1502   1.260       .  A
O1495     Cr1503   1.972       .  S
O1495      C1496   1.258       .  A
C1496      C1716   1.478       .  S
C1496      O1497   1.268       .  A
O1497     Cr1504   2.013       .  S
O1498     Cr1504   1.975       .  S
O1498      C1499   1.259       .  A
C1499      C1770   1.500       .  S
C1499      O1500   1.278       .  A
O1500     Cr1505   2.052       .  S
O1501     Cr1505   1.968       .  S
O1501      C1502   1.257       .  A
C1502      C1811   1.474       .  S
Cr1503     O1506   1.774       .  S
Cr1504     O1506   1.776       .  S
Cr1505     O1506   1.776       .  S
C1507      N1508   1.369       .  A
C1507      N1512   1.365       .  A
C1507      C1706   1.487       .  S
N1508      C1509   1.362       .  A
C1509      N1510   1.351       .  A
C1509      C1739   1.480       .  S
N1510      C1511   1.348       .  A
C1511      N1512   1.357       .  A
C1511      C1719   1.472       .  S
C1513      N1514   1.364       .  A
C1513      N1518   1.372       .  A
C1513      C1911   1.486       .  S
N1514      C1515   1.354   1_556  A
C1515      N1516   1.345       .  A
C1515      C1696   1.464       .  S
N1516      C1517   1.349       .  A
C1517      N1518   1.365   1_554  A
C1517      C2352   1.477   1_545  S
C1519      N1520   1.369       .  A
C1519      N1524   1.363       .  A
C1519      C1871   1.484       .  S
N1520      C1521   1.365   1_556  A
C1521      N1522   1.350       .  A
C1521      C1676   1.479       .  S
N1522      C1523   1.344       .  A
C1523      N1524   1.352   1_554  A
C1523      C1666   1.463       .  S
C1525      N1526   1.363       .  A
C1525      N1530   1.363       .  A
C1525      C1654   1.490       .  S
N1526      C1527   1.359       .  A
C1527      N1528   1.361       .  A
C1527      C1661   1.486       .  S
N1528      C1529   1.359       .  A
C1529      N1530   1.365       .  A
C1529      C1658   1.488       .  S
O1531     Cr1549   1.955       .  S
O1531      C1539   1.257       .  A
O1532     Cr1549   2.002       .  S
O1532      C1533   1.266       .  A
C1533      C1634   1.467       .  S
C1533      O1534   1.259       .  A
O1535     Cr1550   2.007       .  S
O1537     Cr1551   1.971       .  S
O1538      C1539   1.267       .  A
C1539      C1644   1.478       .  S
O1540      C1548   1.257       .  A
O1541      C1542   1.260       .  A
C1542      C1699   1.475       .  S
C1542      O1543   1.273       .  A
O1543     Cr1550   2.020       .  S
O1544     Cr1550   1.969       .  S
O1544      C1545   1.259       .  A
C1545      C1662   1.480       .  S
C1545      O1546   1.271       .  A
O1546     Cr1551   2.022       .  S
O1547     Cr1551   1.973       .  S
O1547      C1548   1.258       .  A
C1548      C1679   1.466       .  S
Cr1550     O1552   1.772       .  S
Cr1551     O1552   1.773       .  S
O1553     Cr1571   1.963       .  S
O1553      C1561   1.260       .  A
O1554     Cr1571   1.995       .  S
O1554      C1555   1.263       .  A
C1555      C1647   1.462       .  S
C1555      O1556   1.262       .  A
O1556     Cr1572   1.986       .  S
O1557     Cr1572   1.998       .  S
O1557      C1558   1.262       .  A
C1558      C1831   1.489       .  S
C1558      O1559   1.262       .  A
O1559     Cr1573   1.996       .  S
O1560     Cr1573   2.013       .  S
O1560      C1561   1.268       .  A
C1561      C1614   1.478       .  S
O1562     Cr1571   1.991       .  S
O1562      C1570   1.259       .  A
O1563     Cr1571   1.974       .  S
O1563      C1564   1.257       .  A
C1564      C1624   1.474       .  S
C1564      O1565   1.264       .  A
O1565     Cr1572   1.999       .  S
O1566     Cr1572   1.982       .  S
O1566      C1567   1.264       .  A
C1567      C2323   1.481       .  S
C1567      O1568   1.270       .  A
O1568     Cr1573   2.015       .  S
O1569     Cr1573   1.982       .  S
O1569      C1570   1.262       .  A
C1570      C1689   1.474       .  S
Cr1571     O1574   1.777       .  S
Cr1572     O1574   1.778       .  S
Cr1573     O1574   1.775       .  S
O1575     Cr1593   1.940       .  S
O1575      C1583   1.256       .  A
O1576     Cr1593   1.995       .  S
O1576      C1577   1.263       .  A
C1577      C1617   1.474       .  S
C1577      O1578   1.261       .  A
O1578     Cr1594   1.987       .  S
O1579     Cr1594   2.007       .  S
O1579      C1580   1.264       .  A
C1580      C1709   1.484       .  S
C1580      O1581   1.258       .  A
O1581     Cr1595   1.977       .  S
O1582     Cr1595   2.039       .  S
O1582      C1583   1.273       .  A
C1583      C1637   1.482       .  S
O1584     Cr1593   1.999       .  S
O1584      C1592   1.259       .  A
O1585     Cr1593   1.959       .  S
O1585      C1586   1.257       .  A
C1586      C1669   1.472       .  S
C1586      O1587   1.269       .  A
O1587     Cr1594   2.016       .  S
O1588     Cr1594   1.971       .  S
O1588      C1589   1.262       .  A
C1589      C1653   1.484       .  S
C1589      O1590   1.274       .  A
O1590     Cr1595   2.032       .  S
O1591     Cr1595   1.971       .  S
O1591      C1592   1.258       .  A
C1592      C1607   1.475       .  S
Cr1593     O1596   1.771       .  S
Cr1594     O1596   1.774       .  S
Cr1595     O1596   1.775       .  S
C1597      N1598   1.372       .  A
C1597      N1602   1.362       .  A
C1597      C1851   1.488       .  S
N1598      C1599   1.367   1_556  A
C1599      N1600   1.350       .  A
C1599      C1604   1.486       .  S
N1600      C1601   1.345       .  A
C1601      N1602   1.352   1_554  A
C1601      C2293   1.464   1_545  S
C1603      C1604   1.406       .  A
C1603      C1608   1.407       .  A
C1603      H1609   1.083       .  S
C1604      C1605   1.411       .  A
C1605      C1606   1.389       .  A
C1605      H1610   1.083       .  S
C1606      C1607   1.397       .  A
C1606      H1611   1.084       .  S
C1607      C1608   1.409       .  A
C1608      H1612   1.083       .  S
C1613      C1614   1.407       .  A
C1613      C1618   1.403       .  A
C1613      H1619   1.083       .  S
C1614      C1615   1.404       .  A
C1615      C1616   1.391       .  A
C1615      H1620   1.083       .  S
C1616      C1617   1.403       .  A
C1616      H1621   1.084       .  S
C1617      C1618   1.404       .  A
C1618      H1622   1.083       .  S
C1623      C1624   1.408       .  A
C1623      C2294   1.401       .  A
C1623      H1629   1.083       .  S
C1624      C1625   1.403       .  A
C1625      C1626   1.388       .  A
C1625      H1630   1.083       .  S
C1626      C1627   1.402       .  A
C1626      H1631   1.083       .  S
C1627      C2267   1.469       .  S
C1627      C2294   1.404       .  A
C1628      C2289   1.398       .  A
C1628      C2293   1.402       .  A
C1628      H1632   1.084       .  S
C1633      C1634   1.407       .  A
C1633      C1638   1.408       .  A
C1633      H1639   1.083       .  S
C1634      C1635   1.396       .  A
C1635      C1636   1.387       .  A
C1635      H1640   1.083       .  S
C1636      C1637   1.408       .  A
C1636      H1641   1.083       .  S
C1637      C1638   1.407       .  A
C1638      H1642   1.083       .  S
C1643      C1644   1.405       .  A
C1643      C1648   1.388       .  A
C1643      H1649   1.083       .  S
C1644      C1645   1.408       .  A
C1645      C1646   1.406       .  A
C1645      H1650   1.083       .  S
C1646      C1647   1.404       .  A
C1646      H1651   1.083       .  S
C1647      C1648   1.397       .  A
C1648      H1652   1.084       .  S
C1653      C1654   1.348       .  D
C1653      H1655   1.087       .  S
C1654      H1656   1.086       .  S
C1657      C2233   1.485   1_545  S
C1657      C1658   1.344       .  D
C1657      H1659   1.088       .  S
C1658      H1660   1.088       .  S
C1661      C1662   1.345       .  D
C1661      H1663   1.088       .  S
C1662      H1664   1.088       .  S
C1665      C1666   1.400       .  A
C1665      C1670   1.397       .  A
C1665      H1671   1.083   1_554  S
C1666      C1667   1.403       .  A
C1667      C1668   1.391       .  A
C1667      H1672   1.084       .  S
C1668      C1669   1.402       .  A
C1668      H1673   1.083       .  S
C1669      C1670   1.408       .  A
C1670      H1674   1.083       .  S
C1675      C1676   1.404       .  A
C1675      C1680   1.404       .  A
C1675      H1681   1.083       .  S
C1676      C1677   1.410       .  A
C1677      C1678   1.388       .  A
C1677      H1682   1.083       .  S
C1678      C1679   1.395       .  A
C1678      H1683   1.084       .  S
C1679      C1680   1.407       .  A
C1680      H1684   1.083       .  S
C1685      C1686   1.404       .  A
C1685      C1690   1.404       .  A
C1685      H1691   1.083       .  S
C1686      C2183   1.479       .  S
C1686      C2353   1.409       .  A
C1687      C2352   1.405   1_545  A
C1687      C2354   1.388   1_545  A
C1687      H1692   1.084       .  S
C1688      C2353   1.392       .  A
C1688      C1689   1.398       .  A
C1688      H2359   1.083       .  S
C1689      C1690   1.409       .  A
C1690      H1694   1.083       .  S
H1693      C2354   1.083   1_545  S
C1695      C1696   1.402       .  A
C1695      C1700   1.391       .  A
C1695      H1701   1.083       .  S
C1696      C1697   1.401       .  A
C1697      C1698   1.399       .  A
C1697      H1702   1.083   1_554  S
C1698      C1699   1.409       .  A
C1698      H1703   1.083       .  S
C1699      C1700   1.403       .  A
C1700      H1704   1.083       .  S
C1705      C1706   1.406       .  A
C1705      C1710   1.400       .  A
C1705      H1711   1.083       .  S
C1706      C1707   1.408       .  A
C1707      C1708   1.399       .  A
C1707      H1712   1.083       .  S
C1708      C1709   1.405       .  A
C1708      H1713   1.083       .  S
C1709      C1710   1.407       .  A
C1710      H1714   1.083       .  S
C1715      C1716   1.409       .  A
C1715      C1720   1.402       .  A
C1715      H1721   1.082       .  S
C1716      C1717   1.403       .  A
C1717      C1718   1.391       .  A
C1717      H1722   1.083       .  S
C1718      C1719   1.404       .  A
C1718      H1723   1.083       .  S
C1719      C1720   1.403       .  A
C1720      H1724   1.083       .  S
C1725      C1726   1.414       .  A
C1725      C2396   1.421       .  A
C1725      H1731   1.083       .  S
C1726      C1727   1.406       .  A
C1727      C1728   1.391       .  A
C1727      H1732   1.083       .  S
C1728      C2395   1.403       .  A
C1728      H1733   1.084       .  S
C1729      C2394   1.403   1_545  A
C1729      C1730   1.411       .  A
C1730      C2391   1.418   1_545  A
C1730      H1734   1.082       .  S
C1735      C1736   1.408       .  A
C1735      C1740   1.407       .  A
C1735      H1741   1.083       .  S
C1736      C1737   1.398       .  A
C1737      C1738   1.390       .  A
C1737      H1742   1.084       .  S
C1738      C1739   1.407       .  A
C1738      H1743   1.083       .  S
C1739      C1740   1.406       .  A
C1740      H1744   1.083       .  S
C1745      C1746   1.404       .  A
C1745      C1750   1.388       .  A
C1745      H1751   1.084       .  S
C1746      C1747   1.408       .  A
C1747      C1748   1.408       .  A
C1747      H1752   1.083       .  S
C1748      C1749   1.408       .  A
C1748      H1753   1.083       .  S
C1749      C1750   1.403       .  A
C1750      H1754   1.083       .  S
C1755      C1756   1.408       .  A
C1755      C2426   1.409       .  A
C1755      H1761   1.083       .  S
C1756      C1757   1.404       .  A
C1757      C1758   1.389       .  A
C1757      H1762   1.084       .  S
C1758      C2425   1.404       .  A
C1758      H1763   1.079       .  S
C1759      C2424   1.404   1_545  A
C1759      C1760   1.409       .  A
C1760      C2421   1.408   1_545  A
C1760      H1764   1.082       .  S
C1765      C1766   1.351       .  D
C1765      H1767   1.086       .  S
C1766      H1768   1.086       .  S
C1769      C1770   1.345       .  D
C1769      H1771   1.087       .  S
C1770      H1772   1.087       .  S
C1773      C1774   1.345       .  D
C1773      H1775   1.088       .  S
C1774      H1776   1.088       .  S
C1777      C1782   1.404       .  A
C1777      H1783   1.083       .  S
C1778      C1779   1.404   1_455  A
C1779      C1780   1.390       .  A
C1779      H1784   1.083       .  S
C1780      H1785   1.084       .  S
C1781      C1782   1.410       .  A
C1782      H1786   1.083       .  S
C1787      C1788   1.402   1_655  A
C1787      C1792   1.392       .  A
C1787      H1793   1.083       .  S
C1789      C1790   1.401       .  A
C1789      H1794   1.083       .  S
C1790      C1791   1.409       .  A
C1790      H1795   1.082       .  S
C1792      H1796   1.083       .  S
C1797      C1798   1.405   1_455  A
C1797      C1802   1.397   1_455  A
C1797      H1803   1.083       .  S
C1799      C1800   1.400       .  A
C1799      H1804   1.083       .  S
C1800      H1805   1.083       .  S
C1801      C1802   1.407       .  A
C1802      H1806   1.083   1_655  S
C1807      C1808   1.409       .  A
C1807      C1812   1.387       .  A
C1807      H1813   1.083       .  S
C1808      C1809   1.406       .  A
C1809      C1810   1.408       .  A
C1809      H1814   1.083       .  S
C1810      C1811   1.409       .  A
C1810      H1815   1.083       .  S
C1811      C1812   1.397       .  A
C1812      H1816   1.083       .  S
C1817      C1818   1.410       .  A
C1817      C1822   1.389       .  A
C1817      H1823   1.083       .  S
C1818      C1819   1.406       .  A
C1819      C1820   1.409       .  A
C1819      H1824   1.082       .  S
C1820      C1821   1.409       .  A
C1820      H1825   1.083       .  S
C1821      C1822   1.397       .  A
C1822      H1826   1.083       .  S
C1827      C1828   1.406       .  A
C1827      C1832   1.401       .  A
C1827      H1833   1.083       .  S
C1828      C1829   1.410       .  A
C1829      C1830   1.404       .  A
C1829      H1834   1.083       .  S
C1830      C1831   1.405       .  A
C1830      H1835   1.083       .  S
C1831      C1832   1.408       .  A
C1832      H1836   1.083       .  S
C1837      C1838   1.407       .  A
C1837      C1842   1.398       .  A
C1837      H1843   1.083       .  S
C1838      C1839   1.407       .  A
C1839      C1840   1.403       .  A
C1839      H1844   1.083       .  S
C1840      C1841   1.408       .  A
C1840      H1845   1.083       .  S
C1841      C1842   1.405       .  A
C1842      H1846   1.083       .  S
C1847      C1848   1.409       .  A
C1847      C1852   1.403       .  A
C1847      H1853   1.083       .  S
C1848      C1849   1.402       .  A
C1849      C1850   1.396       .  A
C1849      H1854   1.083   1_545  S
C1850      C1851   1.409       .  A
C1850      H2521   1.083   1_545  S
C1851      C1852   1.406       .  A
C1852      H1856   1.083       .  S
H1855      C2516   1.083       .  S
C1857      C1858   1.406       .  A
C1857      C1862   1.409       .  A
C1857      H1863   1.082       .  S
C1858      C1859   1.399       .  A
C1859      C1860   1.387       .  A
C1859      H1864   1.084       .  S
C1860      C1861   1.406       .  A
C1860      H1865   1.083       .  S
C1861      C1862   1.409       .  A
C1862      H1866   1.083       .  S
C1867      C1868   1.403       .  A
C1867      C1872   1.391       .  A
C1867      H1873   1.083       .  S
C1868      C1869   1.408       .  A
C1869      C1870   1.405       .  A
C1869      H1874   1.083       .  S
C1870      C1871   1.407       .  A
C1870      H1875   1.083       .  S
C1871      C1872   1.406       .  A
C1872      H1876   1.083       .  S
C1877      C1878   1.408       .  A
C1877      C1882   1.402       .  A
C1877      H1883   1.082       .  S
C1878      C1879   1.403       .  A
C1879      C1880   1.391       .  A
C1879      H1884   1.084       .  S
C1880      C1881   1.405       .  A
C1880      H1885   1.083       .  S
C1881      C1882   1.403       .  A
C1882      H1886   1.083       .  S
C1887      C1888   1.401       .  A
C1887      C1892   1.400       .  A
C1887      H1893   1.083       .  S
C1888      C1889   1.401       .  A
C1889      C1890   1.387       .  A
C1889      H1894   1.084       .  S
C1890      C1891   1.402       .  A
C1890      H1895   1.083       .  S
C1891      C1892   1.407       .  A
C1892      H1896   1.083       .  S
C1897      C1898   1.409   1_565  A
C1897      C1902   1.410       .  A
C1897      H2569   1.082       .  S
C1898      C1899   1.409       .  A
C1899      C1900   1.392       .  A
C1899      H1904   1.083       .  S
C1900      C1901   1.398       .  A
C1900      H1905   1.083       .  S
C1901      C1902   1.407   1_545  A
C1902      H2572   1.083       .  S
H1903      C2563   1.082       .  S
H1906      C2568   1.083       .  S
C1907      C1908   1.404       .  A
C1907      C1912   1.398       .  A
C1907      H1913   1.083       .  S
C1908      C1909   1.409       .  A
C1909      C1910   1.402       .  A
C1909      H1914   1.083       .  S
C1910      C1911   1.405       .  A
C1910      H1915   1.083       .  S
C1911      C1912   1.408       .  A
C1912      H1916   1.083       .  S
C1917      C1918   1.397       .  A
C1917      C1922   1.389       .  A
C1917      H1923   1.084       .  S
C1918      C1919   1.408       .  A
C1919      C1920   1.406       .  A
C1919      H1924   1.083       .  S
C1920      C1921   1.406       .  A
C1920      H1925   1.083       .  S
C1921      C1922   1.409       .  A
C1922      H1926   1.083       .  S
C1927      C1928   1.342       .  D
C1927      H1929   1.087       .  S
C1928      H1930   1.087       .  S
C1931      C1932   1.359       .  D
C1931      H1933   1.085       .  S
C1932      C2075   1.491       .  S
C1932      H2600   1.085       .  S
H1934      C2598   1.087       .  S
C1935      C1936   1.343       .  D
C1935      H1937   1.087       .  S
C1936      C2031   1.500       .  S
C1936      H2604   1.087       .  S
H1938      C2602   1.087   1_545  S
C1939      C1944   1.404       .  A
C1939      H1945   1.083       .  S
C1940      C1941   1.409       .  A
C1941      H1946   1.083       .  S
C1942      C1943   1.398       .  A
C1942      H1947   1.083       .  S
C1943      C1944   1.408       .  A
C1944      H1948   1.083       .  S
C1949      C1950   1.402       .  A
C1949      C1954   1.400       .  A
C1949      H1955   1.083       .  S
C1950      C1951   1.403       .  A
C1951      C1952   1.391       .  A
C1951      H1956   1.083       .  S
C1952      C1953   1.402       .  A
C1952      H1957   1.083       .  S
C1953      C1954   1.409       .  A
C1954      H1958   1.083       .  S
C1959      C1960   1.405       .  A
C1959      C1964   1.397       .  A
C1959      H1965   1.083       .  S
C1960      C1961   1.408       .  A
C1961      C1962   1.402       .  A
C1961      H1966   1.083       .  S
C1962      C1963   1.406       .  A
C1962      H1967   1.083       .  S
C1963      C1964   1.407       .  A
C1964      H1968   1.083       .  S
C1969      C1970   1.409       .  A
C1969      C1974   1.388       .  A
C1969      H1975   1.083       .  S
C1970      C1971   1.406       .  A
C1971      C1972   1.406       .  A
C1971      H1976   1.083       .  S
C1972      C1973   1.407       .  A
C1972      H1977   1.083       .  S
C1973      C1974   1.397       .  A
C1974      H1978   1.084       .  S
C1979      C1980   1.404       .  A
C1979      H1985   1.083       .  S
C1981      C1982   1.399       .  A
C1981      H1986   1.083       .  S
C1982      C1983   1.409       .  A
C1982      H1987   1.083       .  S
C1983      C1984   1.402       .  A
C1984      H1988   1.083       .  S
C1989      C1990   1.405       .  A
C1989      C1994   1.396       .  A
C1989      H1995   1.083       .  S
C1990      C1991   1.408       .  A
C1991      C1992   1.406       .  A
C1991      H1996   1.083       .  S
C1992      C1993   1.408       .  A
C1992      H1997   1.083       .  S
C1993      C1994   1.405       .  A
C1994      H1998   1.083       .  S
C1999      N2000   1.365       .  A
C1999      N2004   1.367       .  A
C1999      C2656   1.485       .  S
N2000      C2001   1.355       .  A
C2001      N2002   1.348       .  A
C2001      C2646   1.472       .  S
N2002      C2003   1.352       .  A
C2003      N2004   1.362       .  A
C2003      C2636   1.480       .  S
C2005      N2006   1.368       .  A
C2005      N2010   1.369       .  A
C2005      C2629   1.489       .  S
N2006      C2007   1.358       .  A
C2007      N2008   1.346       .  A
C2007      C2616   1.471       .  S
N2008      C2009   1.348       .  A
C2009      N2010   1.362       .  A
C2009      C2606   1.479       .  S
C2011      N2012   1.357       .  A
C2011      N2016   1.367       .  A
C2011      C2601   1.489       .  S
N2012      C2013   1.359       .  A
C2013      N2014   1.358       .  A
C2013      C2593   1.483       .  S
C2015      C2597   1.490       .  S
O2017     Cr2035   1.953       .  S
O2017      C2025   1.259       .  A
O2018     Cr2035   1.994       .  S
O2018      C2019   1.264       .  A
C2019      C2554   1.469       .  S
C2019      O2020   1.260       .  A
O2020     Cr2036   1.986       .  S
O2021     Cr2036   2.008       .  S
O2021      C2022   1.265       .  A
C2022      C2574   1.482       .  S
C2022      O2023   1.256       .  A
O2023     Cr2037   1.972       .  S
O2024     Cr2037   2.060       .  S
O2024      C2025   1.279       .  A
C2025      C2564   1.500       .  S
O2026     Cr2035   1.999       .  S
O2027     Cr2035   1.963       .  S
O2027      C2028   1.257       .  A
C2028      C2649   1.474       .  S
C2028      O2029   1.269       .  A
O2029     Cr2036   2.015       .  S
O2030     Cr2036   1.973       .  S
O2030      C2031   1.260       .  A
O2033      C2034   1.258       .  A
C2034      C2584   1.470       .  S
Cr2035     O2038   1.771       .  S
Cr2036     O2038   1.778       .  S
Cr2037     O2038   1.772       .  S
O2039     Cr2057   1.945       .  S
O2039      C2047   1.255       .  A
O2040     Cr2057   1.993       .  S
O2040      C2041   1.263       .  A
C2041      C2524   1.460       .  S
C2041      O2042   1.258       .  A
O2042     Cr2058   1.978       .  S
O2043     Cr2058   2.015       .  S
O2043      C2044   1.267       .  A
C2044      C2534   1.488       .  S
C2044      O2045   1.259       .  A
O2045     Cr2059   1.978       .  S
O2046     Cr2059   2.030       .  S
O2046      C2047   1.271       .  A
C2047      C2557   1.479       .  S
O2048     Cr2057   2.003       .  S
O2048      C2056   1.261       .  A
O2049     Cr2057   1.958       .  S
O2049      C2050   1.256       .  A
C2050      C2544   1.476       .  S
C2050      O2051   1.270       .  A
O2051     Cr2058   2.023       .  S
O2052     Cr2058   1.965       .  S
O2052      C2053   1.260       .  A
C2053      C2594   1.477       .  S
C2053      O2054   1.273       .  A
O2054     Cr2059   2.027       .  S
O2055     Cr2059   1.973       .  S
O2055      C2056   1.259       .  A
C2056      C2609   1.474       .  S
Cr2057     O2060   1.769       .  S
Cr2058     O2060   1.775       .  S
Cr2059     O2060   1.773       .  S
O2061     Cr2079   1.949       .  S
O2061      C2069   1.257       .  A
O2062     Cr2079   2.001       .  S
O2062      C2063   1.264       .  A
C2063      C2567   1.490       .  S
C2063      O2064   1.265       .  A
O2064     Cr2080   2.011       .  S
O2065     Cr2080   2.011       .  S
O2065      C2066   1.266       .  A
C2066      C2514   1.480       .  S
C2066      O2067   1.256       .  A
O2067     Cr2081   1.963       .  S
O2068     Cr2081   2.020       .  S
O2068      C2069   1.269       .  A
C2069      C2527   1.475       .  S
O2070     Cr2079   2.007       .  S
O2070      C2078   1.262       .  A
O2071     Cr2079   1.961       .  S
C2072      C2619   1.479       .  S
C2072      O2073   1.270       .  A
C2075      O2076   1.268       .  A
O2076     Cr2081   2.020       .  S
O2077     Cr2081   1.960       .  S
O2077      C2078   1.255       .  A
C2078      C2639   1.470       .  S
Cr2079     O2082   1.771       .  S
Cr2080     O2082   1.774       .  S
Cr2081     O2082   1.777       .  S
C2083      N2084   1.365       .  A
C2083      N2088   1.370       .  A
C2083      C2504   1.486       .  S
N2084      C2085   1.355       .  A
C2085      N2086   1.345       .  A
C2085      C2547   1.468       .  S
N2086      C2087   1.349       .  A
C2087      N2088   1.364       .  A
C2087      C2587   1.482       .  S
C2089      N2090   1.368       .  A
C2089      N2094   1.368       .  A
C2089      C2494   1.487       .  S
N2090      C2091   1.360       .  A
C2091      N2092   1.347       .  A
C2091      C2474   1.478       .  S
N2092      C2093   1.347       .  A
C2093      N2094   1.359       .  A
C2093      C2484   1.479       .  S
C2095      N2096   1.366       .  A
C2095      N2100   1.360       .  A
C2095      C2464   1.477       .  S
N2096      C2097   1.361       .  A
C2097      N2098   1.349       .  A
C2097      C2444   1.471       .  S
N2098      C2099   1.347       .  A
C2099      N2100   1.353       .  A
C2099      C2454   1.458       .  S
C2101      N2102   1.360       .  A
C2101      N2106   1.349       .  A
C2101      C2440   1.478       .  S
N2102      C2103   1.363       .  A
C2103      N2104   1.375       .  A
C2103      C2431   1.503       .  S
N2104      C2105   1.375       .  A
C2105      N2106   1.353       .  A
C2105      C2435   1.489       .  S
O2107      C2115   1.261       .  A
O2108     Cr2125   1.958       .  S
O2108      C2109   1.260       .  A
C2109      C2422   1.483       .  S
C2109      O2110   1.273       .  A
O2110     Cr2126   2.036       .  S
O2111     Cr2126   1.976       .  S
O2111      C2112   1.259       .  A
C2112      C2626   1.486       .  S
C2112      O2113   1.264       .  A
O2113     Cr2127   2.010       .  S
O2114      C2115   1.258       .  A
C2115      C2412   1.462       .  S
O2116     Cr2125   1.967       .  S
O2116      C2124   1.259       .  A
O2117     Cr2125   1.993       .  S
O2117      C2118   1.258       .  A
C2118      C2487   1.468       .  S
C2118      O2119   1.259       .  A
O2119     Cr2126   1.973       .  S
O2120     Cr2126   2.028       .  S
O2120      C2121   1.275       .  A
C2121      C2439   1.477       .  S
C2121      O2122   1.258       .  A
O2122     Cr2127   1.960       .  S
O2123     Cr2127   2.020       .  S
O2123      C2124   1.271       .  A
C2124      C2457   1.478       .  S
Cr2125     O2128   1.770       .  S
Cr2126     O2128   1.769       .  S
Cr2127     O2128   1.778       .  S
O2129     Cr2147   1.963       .  S
O2129      C2137   1.260       .  A
O2130      C2131   1.263   1_455  A
C2131      C2395   1.495       .  S
C2131      O2132   1.269   1_655  A
O2133     Cr2148   1.997       .  S
O2133      C2134   1.264       .  A
C2134      C2659   1.482       .  S
C2134      O2135   1.261       .  A
O2135     Cr2149   1.984       .  S
O2136     Cr2149   2.027       .  S
O2136      C2137   1.270       .  A
C2137      C2425   1.486       .  S
O2138     Cr2147   1.997       .  S
O2138      C2146   1.260       .  A
O2139     Cr2147   1.972       .  S
O2139      C2140   1.258       .  A
C2140      C2447   1.478       .  S
C2140      O2141   1.267       .  A
O2141     Cr2148   2.005       .  S
O2142     Cr2148   2.014       .  S
O2142      C2143   1.270       .  A
C2143      C2432   1.505       .  S
C2143      O2144   1.270       .  A
O2144     Cr2149   2.022       .  S
O2145     Cr2149   1.972       .  S
O2145      C2146   1.259       .  A
C2146      C2402   1.469       .  S
Cr2147     O2150   1.776       .  S
Cr2148     O2150   1.777       .  S
Cr2149     O2150   1.781       .  S
O2151     Cr2169   1.954       .  S
O2151      C2159   1.259       .  A
O2152     Cr2169   1.986       .  S
O2152      C2153   1.263       .  A
C2153      C2415   1.464       .  S
C2153      O2154   1.259       .  A
O2154     Cr2170   1.979       .  S
O2155     Cr2170   2.001       .  S
O2155      C2156   1.263       .  A
C2156      C2507   1.483       .  S
C2156      O2157   1.257       .  A
O2157     Cr2171   1.979       .  S
O2158     Cr2171   2.053       .  S
O2158      C2159   1.277       .  A
C2159      C2392   1.495       .  S
O2160     Cr2169   1.989       .  S
O2160      C2168   1.257       .  A
O2161     Cr2169   1.970       .  S
O2161      C2162   1.258       .  A
C2162      C2382   1.474       .  S
C2162      O2163   1.267       .  A
O2163     Cr2170   2.008       .  S
O2164     Cr2170   1.964       .  S
O2164      C2165   1.258       .  A
C2165      C2436   1.492       .  S
C2165      O2166   1.281       .  A
O2166     Cr2171   2.053       .  S
O2167     Cr2171   1.975       .  S
O2167      C2168   1.259       .  A
C2168      C2477   1.467       .  S
Cr2169     O2172   1.770       .  S
Cr2170     O2172   1.776       .  S
Cr2171     O2172   1.773       .  S
C2173      N2174   1.368       .  A
C2173      N2178   1.363       .  A
C2173      C2372   1.484       .  S
N2174      C2175   1.362       .  A
C2175      N2176   1.350       .  A
C2175      C2405   1.477       .  S
N2176      C2177   1.347       .  A
C2177      N2178   1.355       .  A
C2177      C2385   1.467       .  S
C2179      N2180   1.362       .  A
C2179      N2184   1.370       .  A
C2179      C2577   1.484       .  S
N2180      C2181   1.353   1_556  A
C2181      N2182   1.347       .  A
C2181      C2362   1.467       .  S
N2182      C2183   1.350       .  A
C2183      N2184   1.364   1_554  A
C2185      N2186   1.371       .  A
C2185      N2190   1.370       .  A
C2185      C2537   1.491       .  S
N2186      C2187   1.362   1_556  A
C2187      N2188   1.347       .  A
C2187      C2342   1.481       .  S
N2188      C2189   1.346       .  A
C2189      N2190   1.361   1_554  A
C2189      C2332   1.485       .  S
C2191      N2192   1.368       .  A
C2191      N2196   1.363       .  A
C2191      C2320   1.499       .  S
N2192      C2193   1.369       .  A
C2193      N2194   1.358       .  A
C2193      C2327   1.491       .  S
N2194      C2195   1.359       .  A
C2195      N2196   1.359       .  A
C2195      C2324   1.483       .  S
O2197     Cr2215   1.952       .  S
O2197      C2205   1.259       .  A
O2198     Cr2215   2.001       .  S
O2198      C2199   1.264       .  A
C2199      C2300   1.490       .  S
C2199      O2200   1.262       .  A
O2201     Cr2216   1.992       .  S
O2203     Cr2217   1.980       .  S
O2204      C2205   1.271       .  A
C2205      C2310   1.480       .  S
O2206      C2214   1.261       .  A
O2207      C2208   1.258       .  A
C2208      C2365   1.473       .  S
C2208      O2209   1.264       .  A
O2209     Cr2216   1.995       .  S
O2210     Cr2216   2.008       .  S
O2210      C2211   1.270       .  A
C2211      C2328   1.490       .  S
C2211      O2212   1.266       .  A
O2212     Cr2217   2.005       .  S
O2213     Cr2217   1.976       .  S
O2213      C2214   1.262       .  A
C2214      C2345   1.473       .  S
Cr2216     O2218   1.777       .  S
Cr2217     O2218   1.774       .  S
O2219     Cr2237   1.952       .  S
O2219      C2227   1.257       .  A
O2220     Cr2237   1.993       .  S
O2220      C2221   1.264       .  A
C2221      C2313   1.466       .  S
C2221      O2222   1.260       .  A
O2222     Cr2238   1.983       .  S
O2223     Cr2238   2.005       .  S
O2223      C2224   1.266       .  A
C2224      C2497   1.484       .  S
C2224      O2225   1.261       .  A
O2225     Cr2239   1.980       .  S
O2226     Cr2239   2.052       .  S
O2226      C2227   1.276       .  A
C2227      C2280   1.488       .  S
O2228     Cr2237   2.008       .  S
O2228      C2236   1.260       .  A
O2229     Cr2237   1.967       .  S
O2229      C2230   1.259       .  A
C2230      C2290   1.473       .  S
C2230      O2231   1.268       .  A
O2231     Cr2238   2.007       .  S
O2232     Cr2238   1.969       .  S
O2232      C2233   1.259       .  A
C2233      O2234   1.274       .  A
O2234     Cr2239   2.035       .  S
O2235     Cr2239   1.973       .  S
O2235      C2236   1.258       .  A
C2236      C2355   1.481       .  S
Cr2237     O2240   1.770       .  S
Cr2238     O2240   1.772       .  S
Cr2239     O2240   1.771       .  S
O2241     Cr2259   1.998       .  S
O2241      C2249   1.264       .  A
O2242     Cr2259   1.967       .  S
O2242      C2243   1.262       .  A
C2243      C2283   1.487       .  S
C2243      O2244   1.273       .  A
O2244     Cr2260   2.037       .  S
O2245     Cr2260   1.978       .  S
O2245      C2246   1.259       .  A
C2246      C2375   1.483       .  S
C2246      O2247   1.262       .  A
O2247     Cr2261   2.000       .  S
O2248     Cr2261   2.005       .  S
O2248      C2249   1.264       .  A
C2249      C2303   1.490       .  S
O2250     Cr2259   1.975       .  S
O2250      C2258   1.261       .  A
O2251     Cr2259   2.004       .  S
O2251      C2252   1.260       .  A
C2252      C2335   1.474       .  S
C2252      O2253   1.257       .  A
O2253     Cr2260   1.968       .  S
O2254     Cr2260   2.033       .  S
O2254      C2255   1.272       .  A
C2255      C2319   1.492       .  S
C2255      O2256   1.263       .  A
O2256     Cr2261   1.981       .  S
O2257     Cr2261   2.007       .  S
O2257      C2258   1.268       .  A
C2258      C2273   1.478       .  S
Cr2259     O2262   1.775       .  S
Cr2260     O2262   1.780       .  S
Cr2261     O2262   1.778       .  S
C2263      N2264   1.365       .  A
C2263      N2268   1.363       .  A
C2263      C2517   1.479       .  S
N2264      C2265   1.358   1_556  A
C2265      N2266   1.349       .  A
C2265      C2270   1.470       .  S
N2266      C2267   1.350       .  A
C2267      N2268   1.357   1_554  A
C2269      C2270   1.403       .  A
C2269      C2274   1.391       .  A
C2269      H2275   1.083       .  S
C2270      C2271   1.403       .  A
C2271      C2272   1.401       .  A
C2271      H2276   1.083   1_554  S
C2272      C2273   1.408       .  A
C2272      H2277   1.083       .  S
C2273      C2274   1.404       .  A
C2274      H2278   1.083       .  S
C2279      C2280   1.408       .  A
C2279      C2284   1.412       .  A
C2279      H2285   1.082       .  S
C2280      C2281   1.406       .  A
C2281      C2282   1.392       .  A
C2281      H2286   1.084       .  S
C2282      C2283   1.403       .  A
C2282      H2287   1.084       .  S
C2283      C2284   1.410       .  A
C2284      H2288   1.083       .  S
C2289      C2290   1.407       .  A
C2289      H2295   1.083       .  S
C2290      C2291   1.403       .  A
C2291      C2292   1.390       .  A
C2291      H2296   1.083       .  S
C2292      C2293   1.402       .  A
C2292      H2297   1.083       .  S
C2294      H2298   1.084       .  S
C2299      C2300   1.410       .  A
C2299      C2304   1.413       .  A
C2299      H2305   1.083       .  S
C2300      C2301   1.404       .  A
C2301      C2302   1.390       .  A
C2301      H2306   1.083       .  S
C2302      C2303   1.405       .  A
C2302      H2307   1.083       .  S
C2303      C2304   1.409       .  A
C2304      H2308   1.083       .  S
C2309      C2310   1.406       .  A
C2309      C2314   1.387       .  A
C2309      H2315   1.083       .  S
C2310      C2311   1.409       .  A
C2311      C2312   1.406       .  A
C2311      H2316   1.083       .  S
C2312      C2313   1.405       .  A
C2312      H2317   1.083       .  S
C2313      C2314   1.398       .  A
C2314      H2318   1.084       .  S
C2319      C2320   1.354       .  D
C2319      H2321   1.086       .  S
C2320      H2322   1.085       .  S
C2323      C2324   1.347       .  D
C2323      H2325   1.087       .  S
C2324      H2326   1.086       .  S
C2327      C2328   1.343       .  D
C2327      H2329   1.087       .  S
C2328      H2330   1.087       .  S
C2331      C2332   1.406       .  A
C2331      C2336   1.407       .  A
C2331      H2337   1.083       .  S
C2332      C2333   1.410       .  A
C2333      C2334   1.388       .  A
C2333      H2338   1.083       .  S
C2334      C2335   1.398       .  A
C2334      H2339   1.084       .  S
C2335      C2336   1.408       .  A
C2336      H2340   1.083       .  S
C2341      C2342   1.404       .  A
C2341      C2346   1.406       .  A
C2341      H2347   1.083   1_554  S
C2342      C2343   1.409       .  A
C2343      C2344   1.390       .  A
C2343      H2348   1.083       .  S
C2344      C2345   1.397       .  A
C2344      H2349   1.083       .  S
C2345      C2346   1.409       .  A
C2346      H2350   1.083       .  S
C2351      C2352   1.404       .  A
C2351      C2356   1.409       .  A
C2351      H2357   1.083       .  S
C2353      H2358   1.083       .  S
C2354      C2355   1.401       .  A
C2355      C2356   1.411       .  A
C2356      H2360   1.083       .  S
C2361      C2362   1.401       .  A
C2361      C2366   1.387       .  A
C2361      H2367   1.084       .  S
C2362      C2363   1.404       .  A
C2363      C2364   1.401       .  A
C2363      H2368   1.083   1_554  S
C2364      C2365   1.407       .  A
C2364      H2369   1.083       .  S
C2365      C2366   1.404       .  A
C2366      H2370   1.083       .  S
C2371      C2372   1.405       .  A
C2371      C2376   1.400       .  A
C2371      H2377   1.083       .  S
C2372      C2373   1.407       .  A
C2373      C2374   1.397       .  A
C2373      H2378   1.083       .  S
C2374      C2375   1.404       .  A
C2374      H2379   1.083       .  S
C2375      C2376   1.407       .  A
C2376      H2380   1.083       .  S
C2381      C2382   1.407       .  A
C2381      C2386   1.400       .  A
C2381      H2387   1.083       .  S
C2382      C2383   1.403       .  A
C2383      C2384   1.390       .  A
C2383      H2388   1.083       .  S
C2384      C2385   1.403       .  A
C2384      H2389   1.083       .  S
C2385      C2386   1.402       .  A
C2386      H2390   1.083       .  S
C2391      C2392   1.411       .  A
C2391      H2397   1.083       .  S
C2392      C2393   1.406       .  A
C2393      C2394   1.389       .  A
C2393      H2398   1.083       .  S
C2394      H2399   1.084   1_565  S
C2395      C2396   1.411       .  A
C2396      H2400   1.083       .  S
C2401      C2402   1.407       .  A
C2401      C2406   1.403       .  A
C2401      H2407   1.083       .  S
C2402      C2403   1.398       .  A
C2403      C2404   1.390       .  A
C2403      H2408   1.084       .  S
C2404      C2405   1.408       .  A
C2404      H2409   1.083       .  S
C2405      C2406   1.404       .  A
C2406      H2410   1.083       .  S
C2411      C2412   1.401       .  A
C2411      C2416   1.383       .  A
C2411      H2417   1.084       .  S
C2412      C2413   1.404       .  A
C2413      C2414   1.401       .  A
C2413      H2418   1.083       .  S
C2414      C2415   1.405       .  A
C2414      H2419   1.083       .  S
C2415      C2416   1.401       .  A
C2416      H2420   1.084       .  S
C2421      C2422   1.407       .  A
C2421      H2427   1.083       .  S
C2422      C2423   1.405       .  A
C2423      C2424   1.391       .  A
C2423      H2428   1.083       .  S
C2424      H2429   1.083       .  S
C2425      C2426   1.409       .  A
C2426      H2430   1.083       .  S
C2431      C2432   1.351       .  D
C2431      H2433   1.086       .  S
C2432      H2434   1.086       .  S
C2435      C2436   1.339       .  D
C2435      H2437   1.088       .  S
C2436      H2438   1.088       .  S
C2439      C2440   1.339       .  D
C2439      H2441   1.086       .  S
C2440      H2442   1.086       .  S
C2443      C2448   1.402       .  A
C2443      H2449   1.083       .  S
C2444      C2445   1.405       .  A
C2445      C2446   1.390       .  A
C2445      H2450   1.083       .  S
C2446      H2451   1.084       .  S
C2447      C2448   1.409       .  A
C2448      H2452   1.083       .  S
C2453      C2454   1.402       .  A
C2453      C2458   1.390       .  A
C2453      H2459   1.083       .  S
C2455      C2456   1.400       .  A
C2455      H2460   1.084       .  S
C2456      C2457   1.409       .  A
C2456      H2461   1.082       .  S
C2458      H2462   1.083       .  S
C2463      C2464   1.407   1_455  A
C2463      C2468   1.395       .  A
C2463      H2469   1.084       .  S
C2465      C2466   1.399       .  A
C2465      H2470   1.083       .  S
C2466      H2471   1.083       .  S
C2467      C2468   1.402   1_655  A
C2468      H2472   1.083       .  S
C2473      C2474   1.409       .  A
C2473      C2478   1.389       .  A
C2473      H2479   1.083       .  S
C2474      C2475   1.405       .  A
C2475      C2476   1.404       .  A
C2475      H2480   1.082       .  S
C2476      C2477   1.407       .  A
C2476      H2481   1.083       .  S
C2477      C2478   1.396       .  A
C2478      H2482   1.083       .  S
C2483      C2484   1.409       .  A
C2483      C2488   1.389       .  A
C2483      H2489   1.083       .  S
C2484      C2485   1.405       .  A
C2485      C2486   1.403       .  A
C2485      H2490   1.083       .  S
C2486      C2487   1.407       .  A
C2486      H2491   1.083       .  S
C2487      C2488   1.396       .  A
C2488      H2492   1.083       .  S
C2493      C2494   1.406       .  A
C2493      C2498   1.398       .  A
C2493      H2499   1.083       .  S
C2494      C2495   1.407       .  A
C2495      C2496   1.400       .  A
C2495      H2500   1.083       .  S
C2496      C2497   1.406       .  A
C2496      H2501   1.083       .  S
C2497      C2498   1.406       .  A
C2498      H2502   1.083       .  S
C2503      C2504   1.407       .  A
C2503      C2508   1.395       .  A
C2503      H2509   1.083       .  S
C2504      C2505   1.407       .  A
C2505      C2506   1.403       .  A
C2505      H2510   1.083       .  S
C2506      C2507   1.407       .  A
C2506      H2511   1.083       .  S
C2507      C2508   1.404       .  A
C2508      H2512   1.083       .  S
C2513      C2514   1.407       .  A
C2513      C2518   1.395       .  A
C2513      H2519   1.083       .  S
C2514      C2515   1.404       .  A
C2515      C2516   1.399       .  A
C2515      H2520   1.083       .  S
C2516      C2517   1.407       .  A
C2517      C2518   1.403       .  A
C2518      H2522   1.083       .  S
C2523      C2524   1.403       .  A
C2523      C2528   1.403       .  A
C2523      H2529   1.083       .  S
C2524      C2525   1.397       .  A
C2525      C2526   1.385       .  A
C2525      H2530   1.083       .  S
C2526      C2527   1.406       .  A
C2526      H2531   1.083       .  S
C2527      C2528   1.408       .  A
C2528      H2532   1.083       .  S
C2533      C2534   1.405       .  A
C2533      C2538   1.401       .  A
C2533      H2539   1.083       .  S
C2534      C2535   1.408       .  A
C2535      C2536   1.402       .  A
C2535      H2540   1.083       .  S
C2536      C2537   1.407       .  A
C2536      H2541   1.083       .  S
C2537      C2538   1.408       .  A
C2538      H2542   1.083       .  S
C2543      C2544   1.409       .  A
C2543      C2548   1.399       .  A
C2543      H2549   1.083       .  S
C2544      C2545   1.402       .  A
C2545      C2546   1.392       .  A
C2545      H2550   1.083       .  S
C2546      C2547   1.405       .  A
C2546      H2551   1.083       .  S
C2547      C2548   1.401       .  A
C2548      H2552   1.083       .  S
C2553      C2554   1.406       .  A
C2553      C2558   1.407       .  A
C2553      H2559   1.083       .  S
C2554      C2555   1.399       .  A
C2555      C2556   1.386       .  A
C2555      H2560   1.084       .  S
C2556      C2557   1.406       .  A
C2556      H2561   1.083       .  S
C2557      C2558   1.407       .  A
C2558      H2562   1.083       .  S
C2563      C2564   1.411       .  A
C2563      C2568   1.417       .  A
C2564      C2565   1.409       .  A
C2565      C2566   1.392       .  A
C2565      H2570   1.083       .  S
C2566      C2567   1.401       .  A
C2566      H2571   1.084       .  S
C2567      C2568   1.410       .  A
C2573      C2574   1.403       .  A
C2573      C2578   1.395       .  A
C2573      H2579   1.083       .  S
C2574      C2575   1.408       .  A
C2575      C2576   1.402       .  A
C2575      H2580   1.083       .  S
C2576      C2577   1.405       .  A
C2576      H2581   1.083       .  S
C2577      C2578   1.408       .  A
C2578      H2582   1.083       .  S
C2583      C2584   1.396       .  A
C2583      C2588   1.387       .  A
C2583      H2589   1.084       .  S
C2584      C2585   1.408       .  A
C2585      C2586   1.406       .  A
C2585      H2590   1.083       .  S
C2586      C2587   1.406       .  A
C2586      H2591   1.083       .  S
C2587      C2588   1.410       .  A
C2588      H2592   1.083       .  S
C2593      C2594   1.344       .  D
C2593      H2595   1.087       .  S
C2594      H2596   1.088       .  S
C2597      C2598   1.350       .  D
C2597      H2599   1.086   1_565  S
C2601      C2602   1.342       .  D
C2601      H2603   1.087       .  S
C2605      C2610   1.407       .  A
C2605      H2611   1.083       .  S
C2606      C2607   1.409       .  A
C2607      H2612   1.083       .  S
C2608      C2609   1.397       .  A
C2608      H2613   1.084       .  S
C2609      C2610   1.408       .  A
C2610      H2614   1.083       .  S
C2615      C2616   1.401       .  A
C2615      C2620   1.402       .  A
C2615      H2621   1.083       .  S
C2616      C2617   1.405       .  A
C2617      C2618   1.393       .  A
C2617      H2622   1.083       .  S
C2618      C2619   1.402       .  A
C2618      H2623   1.083       .  S
C2619      C2620   1.410       .  A
C2620      H2624   1.083       .  S
C2625      C2626   1.405       .  A
C2625      C2630   1.398       .  A
C2625      H2631   1.083       .  S
C2626      C2627   1.407       .  A
C2627      C2628   1.402       .  A
C2627      H2632   1.083       .  S
C2628      C2629   1.408       .  A
C2628      H2633   1.083       .  S
C2629      C2630   1.407       .  A
C2630      H2634   1.083       .  S
C2635      C2636   1.407       .  A
C2635      C2640   1.388       .  A
C2635      H2641   1.083       .  S
C2636      C2637   1.406       .  A
C2637      C2638   1.405       .  A
C2637      H2642   1.083       .  S
C2638      C2639   1.406       .  A
C2638      H2643   1.083       .  S
C2639      C2640   1.398       .  A
C2640      H2644   1.084       .  S
C2645      C2646   1.403       .  A
C2645      H2651   1.083       .  S
C2647      C2648   1.400       .  A
C2647      H2652   1.083       .  S
C2648      C2649   1.409       .  A
C2648      H2653   1.083       .  S
C2649      C2650   1.401       .  A
C2650      H2654   1.083       .  S
C2655      C2656   1.405       .  A
C2655      C2660   1.394       .  A
C2655      H2661   1.083       .  S
C2656      C2657   1.408       .  A
C2657      C2658   1.403       .  A
C2657      H2662   1.083       .  S
C2658      C2659   1.406       .  A
C2658      H2663   1.083       .  S
C2659      C2660   1.404       .  A
C2660      H2664   1.083       .  S
