geometry optimzed in LAMMPS
_audit_creation_date              2020-11-30 
_audit_creation_method            'lammps2cif' 
_symmetry_space_group_name_H-M    'P1' 
_symmetry_Int_Tables_number       1 
_symmetry_cell_setting            triclinic 
loop_ 
_symmetry_equiv_pos_as_xyz 
  x,y,z 
_cell_length_a                    36.08207998 
_cell_length_b                    36.18030161693948 
_cell_length_c                    53.23193495507431 
_cell_angle_alpha                 90.02747790683891 
_cell_angle_beta                  89.56110660509397 
_cell_angle_gamma                 119.87595721322175 
loop_ 
_atom_site_label 
_atom_site_type_symbol 
_atom_site_fract_x 
_atom_site_fract_y 
_atom_site_fract_z 
_atom_site_charge 
C1          C  0.04458553  0.09616803  0.63655810     0.79400
N2          N  0.07997041  0.11123757  0.65137482    -0.78900
C3          C  0.07564374  0.11284403  0.67672218     0.81800
N4          N  0.03652150  0.09891115  0.68660681    -0.78900
C5          C  0.00180114  0.08452156  0.67220482     0.81900
N6          N  0.00534338  0.08279240  0.64700390    -0.80600
C7          C  0.03453822  0.33641903  0.63382098     0.79400
N8          N  0.06453256  0.37183644  0.64594569    -0.78900
C9          C  0.06734389  0.37075179  0.67127397     0.81800
N10         N  0.04013355  0.33548172  0.68406405    -0.78900
C11         C  0.01050032  0.30028866  0.67233841     0.81900
N12         N  0.00734182  0.30057876  0.64698785    -0.80600
C13         C  0.42758151  0.44570094  0.81171183     0.02300
C14         C  0.47275636  0.46873556  0.81029986    -0.13900
C15         C  0.99759536  0.44833250  0.81087014    -0.00200
C16         C  0.47532614  0.40276712  0.81104560    -0.12400
C17         C  0.43049712  0.37848593  0.81304209     0.02300
C18         C  0.40696136  0.40051122  0.81356855    -0.11800
H19         H  0.48913383  0.50291525  0.80954896     0.07900
H20         H  0.49373734  0.38645000  0.81102571     0.05400
H21         H  0.37211202  0.38219763  0.81497891     0.05200
O22         O  0.28642122  0.03469553  0.81102892    -0.86200
O23         O  0.36111883  0.09459147  0.78727666    -0.83200
C24         C  0.38040722  0.11694385  0.80592977     0.97300
O25         O  0.39468369  0.10167126  0.82198840    -0.83300
O26         O  0.39729426  0.03667251  0.84835665    -0.85900
C27         C  0.36609797  0.01331298  0.86268398     1.01800
O28         O  0.32858553  0.48893157  0.85353870    -0.78700
O29         O  0.26176130  0.46896205  0.81884527    -0.78900
C30         C  0.25506161  0.99884836  0.81660036     1.01700
O31         O  0.27880071  0.47792477  0.77203047    -0.86200
O32         O  0.35710540  0.03041731  0.75682997    -0.83300
C33         C  0.39687143  0.05331294  0.75606545     0.97300
O34         O  0.41833717  0.07107475  0.77573632    -0.83300
O35         O  0.42011832  0.00760700  0.80413740    -0.85900
C36         C  0.40280450  0.46942239  0.81207035     1.01800
O37         O  0.36500270  0.45165577  0.82098073    -0.78700
O38         O  0.30545680  0.43922465  0.78444990    -0.78900
C39         C  0.28537920  0.44761373  0.76813726     1.01700
Cr40       Cr  0.32243818  0.03295022  0.78393489     1.93700
Cr41       Cr  0.40314671  0.05158426  0.81207470     1.93200
Cr42       Cr  0.31745132  0.46605391  0.81868405     1.39100
O43         O  0.34810688  0.01651225  0.80551929    -1.23900
O44         O  0.37251985  0.16826535  0.78554519    -0.86200
O45         O  0.29596850  0.15174369  0.80542925    -0.83200
C46         C  0.26437092  0.15468874  0.81271825     0.97300
O47         O  0.26789324  0.19148013  0.81516236    -0.83300
O48         O  0.32933340  0.23326132  0.85276746    -0.85900
C49         C  0.36505982  0.24562066  0.86318486     1.01800
O50         O  0.39880472  0.25619354  0.85048608    -0.78700
O51         O  0.39711018  0.18780319  0.82307758    -0.78900
C52         C  0.38457639  0.16013254  0.80570161     1.01700
O53         O  0.37501567  0.23246396  0.75647658    -0.86200
O54         O  0.29319017  0.20857223  0.76955102    -0.83300
C55         C  0.30598209  0.24721929  0.76565304     0.97300
O56         O  0.31937855  0.27168441  0.78420533    -0.83300
O57         O  0.37082664  0.31000076  0.82338463    -0.85900
C58         C  0.40857583  0.33038137  0.81461334     1.01800
O59         O  0.42739609  0.31034565  0.80717590    -0.78700
O60         O  0.43040451  0.24534977  0.77898682    -0.78900
C61         C  0.41310510  0.24099894  0.75753780     1.01700
Cr62       Cr  0.33525624  0.19269655  0.78100965     1.93700
Cr63       Cr  0.32365559  0.24977172  0.81800750     1.93200
Cr64       Cr  0.40981920  0.24875482  0.81438333     1.39100
O65         O  0.35670267  0.23084424  0.80496407    -1.23900
O66         O  0.22621377  0.08154968  0.80777182    -0.86200
O67         O  0.20961572  0.00452001  0.78822717    -0.83200
C68         C  0.21281133  0.99283917  0.80987074     0.97300
O69         O  0.18276731  0.48158738  0.82478446    -0.83300
O70         O  0.11472026  0.48056796  0.84836129    -0.85900
C71         C  0.12561348  0.01213919  0.85942838     1.01800
O72         O  0.13855979  0.04795363  0.84907789    -0.78700
O73         O  0.18687905  0.11132404  0.81388828    -0.78900
C74         C  0.22351595  0.11397943  0.81320590     1.01700
O75         O  0.18019156  0.09105898  0.76744891    -0.86200
O76         O  0.15198145  0.51148818  0.75567275    -0.83300
C77         C  0.13397447  0.47163569  0.75682180     0.97300
O78         O  0.13038307  0.45247750  0.77760700    -0.83300
O79         O  0.06598280  0.45518736  0.80341484    -0.85900
C80         C  0.04561378  0.47331260  0.81070878     1.01800
O81         O  0.06522074  0.01013481  0.81670886    -0.78700
O82         O  0.11451749  0.06772975  0.77934037    -0.78900
C83         C  0.14407394  0.08676402  0.76331187     1.01700
Cr84       Cr  0.18931078  0.04506331  0.78113069     1.93700
Cr85       Cr  0.12522283  0.47128956  0.81281007     1.93200
Cr86       Cr  0.12743246  0.05690893  0.81403371     1.39100
O87         O  0.14606249  0.02326011  0.80235723    -1.23900
C88         C  0.28824136  0.34215415  0.63991092     0.79400
N89         N  0.27323355  0.36250533  0.65502147    -0.78900
C90         C  0.27625401  0.36049584  0.68039918     0.81800
N91         N  0.29484819  0.33960465  0.69002451    -0.78900
C92         C  0.30886572  0.31881729  0.67548288     0.81900
N93         N  0.30517292  0.31932309  0.65019187    -0.80600
C94         C  0.20156221  0.41623222  0.30411917     0.79400
N95         N  0.16142062  0.39992137  0.31404723    -0.78900
C96         C  0.15623194  0.39826415  0.33931219     0.81800
N97         N  0.19045091  0.41329228  0.35423881    -0.78900
C98         C  0.23040931  0.43104003  0.34499069     0.81900
N99         N  0.23634814  0.43225385  0.31960049    -0.80600
C100        C  0.45742834  0.16943079  0.30118180     0.79400
N101        N  0.46285808  0.14086936  0.31506902    -0.78900
C102        C  0.45573091  0.13868214  0.34012907     0.81800
N103        N  0.44440254  0.16486069  0.35106676    -0.78900
C104        C  0.43853101  0.19298123  0.33783545     0.81900
N105        N  0.44538925  0.19583597  0.31256181    -0.80600
C106        C  0.09067283  0.27303654  0.47858453     0.02300
C107        C  0.07100288  0.22838302  0.47722797    -0.13900
C108        C  0.09513631  0.20731871  0.47820459    -0.00200
C109        C  0.14013806  0.23216927  0.47977063    -0.12400
C110        C  0.16125060  0.27727301  0.48069191     0.02300
C111        C  0.13591089  0.29712904  0.48044291    -0.12100
H112        H  0.03653189  0.20989345  0.47618580     0.07900
H113        H  0.15893208  0.21611959  0.48039890     0.05400
H114        H  0.15142422  0.33131170  0.48130736     0.05200
O115        O  0.43831035  0.33354375  0.45124501    -0.86200
O116        O  0.00064423  0.40952976  0.47027272    -0.83200
C117        C  0.03551360  0.44013876  0.47767976     0.97300
O118        O  0.06862109  0.43616854  0.47845166    -0.83300
O119        O  0.04701035  0.37501316  0.51568094    -0.85900
C120        C  0.02382154  0.33967811  0.52658166     1.01800
O121        O  0.50033800  0.30531505  0.51443351    -0.78700
O122        O  0.43388905  0.30721198  0.48831405    -0.78900
C123        C  0.41866192  0.32092846  0.47171154     1.01700
O124        O  0.49804043  0.33030162  0.42029219    -0.86200
O125        O  0.05808803  0.41077657  0.43288486    -0.83300
C126        C  0.08394024  0.39787117  0.42865430     0.97300
O127        O  0.09519578  0.38407042  0.44703733    -0.83300
O128        O  0.08149536  0.33248627  0.48717491    -0.85900
C129        C  0.06438248  0.29487181  0.47879648     1.01800
O130        O  0.02598630  0.27646700  0.47092832    -0.78700
O131        O  0.45739234  0.27424826  0.44328025    -0.78900
C132        C  0.46950723  0.29186721  0.42165598     1.01700
Cr133      Cr  0.00025045  0.36977928  0.44533668     1.93700
Cr134      Cr  0.06948180  0.37999757  0.48113303     1.93200
Cr135      Cr  0.48174628  0.29426815  0.47859160     1.39100
O136        O  0.01739458  0.34756163  0.46866239    -1.23900
O137        O  0.00105115  0.47905140  0.47651887    -0.86200
O138        O  0.44117995  0.49797231  0.45758471    -0.83200
C139        C  0.42505709  0.49186674  0.47908138     0.97300
O140        O  0.44198235  0.02170228  0.49674692    -0.83300
O141        O  0.51234591  0.08893702  0.52009031    -0.85900
C142        C  0.03901529  0.08002949  0.52913741     1.01800
O143        O  0.06091499  0.06733826  0.51711242    -0.78700
O144        O  0.06943497  0.01697585  0.47963693    -0.78900
C145        C  0.03617827  0.48091655  0.48066767     1.01700
O146        O  0.05408567  0.02590514  0.43344324    -0.86200
O147        O  0.50004602  0.05844941  0.42707439    -0.83300
C148        C  0.47875342  0.07682079  0.42997510     0.97300
O149        O  0.46319707  0.07821302  0.45130108    -0.83300
O150        O  0.03290510  0.13921267  0.47397544    -0.85900
C151        C  0.07249613  0.15943717  0.47847741     1.01800
O152        O  0.09229870  0.13957737  0.48390878    -0.78700
O153        O  0.09778052  0.09047096  0.44536547    -0.78900
C154        C  0.08634545  0.06149268  0.42907541     1.01700
Cr155      Cr  0.00044964  0.01816012  0.44934607     1.93700
Cr156      Cr  0.48942166  0.08003062  0.48526557     1.93200
Cr157      Cr  0.07628648  0.07727780  0.48095066     1.39100
O158        O  0.02296940  0.05925628  0.47157528    -1.23900
O159        O  0.39141819  0.41844093  0.47670270    -0.86200
O160        O  0.37369487  0.34148340  0.45405096    -0.83200
C161        C  0.37955773  0.32507817  0.47317890     0.97300
O162        O  0.35276430  0.31427882  0.49093036    -0.83300
O163        O  0.28815543  0.31567951  0.51960538    -0.85900
C164        C  0.29322271  0.34822132  0.53160522     1.01800
O165        O  0.29914273  0.38164568  0.52052714    -0.78700
O166        O  0.34948461  0.44491174  0.48542490    -0.78900
C167        C  0.38702793  0.44961610  0.48325662     1.01700
O168        O  0.34246973  0.42785026  0.43869159    -0.86200
O169        O  0.31253114  0.34498174  0.42545864    -0.83300
C170        C  0.29526372  0.30512962  0.42650637     0.97300
O171        O  0.29300311  0.28554963  0.44699565    -0.83300
O172        O  0.23114997  0.28507607  0.47762421    -0.85900
C173        C  0.20950450  0.30323925  0.48181677     1.01800
O174        O  0.22817677  0.34277273  0.48689160    -0.78700
O175        O  0.27664883  0.40062584  0.45001868    -0.78900
C176        C  0.30579128  0.42120104  0.43404837     1.01700
Cr177      Cr  0.35203535  0.38136078  0.45084071     1.93700
Cr178      Cr  0.29293343  0.30454555  0.48314601     1.93200
Cr179      Cr  0.29004045  0.39016760  0.48500462     1.39100
O180        O  0.31107192  0.35817815  0.47362834    -1.23900
C181        C  0.20808453  0.16708761  0.30357997     0.79400
N182        N  0.18403765  0.13052409  0.31728470    -0.78900
C183        C  0.18419508  0.13267906  0.34289824     0.81800
N184        N  0.20726002  0.17063317  0.35410019    -0.78900
C185        C  0.23087284  0.20643618  0.34084946     0.81900
N186        N  0.23161651  0.20510161  0.31546653    -0.80600
C187        C  0.39279137  0.51378526  0.96902134     0.79400
N188        N  0.43327857  0.03941950  0.98044664    -0.78900
C189        C  0.43991201  0.03476890  0.00509494     0.81800
N190        N  0.40482573  0.50246422  0.01763392    -0.78900
C191        C  0.36622711  0.47800111  0.00751339     0.81900
N192        N  0.35959330  0.48362587  0.98305410    -0.80600
C193        C  0.39287602  0.26962224  0.97003160     0.79400
N194        N  0.42062819  0.25830504  0.97991418    -0.78900
C195        C  0.43047544  0.26526226  0.00459185     0.81800
N196        N  0.41181446  0.28175095  0.01903189    -0.78900
C197        C  0.38239215  0.29064343  0.01034172     0.81900
N198        N  0.37266767  0.28456450  0.98544205    -0.80600
C199        C  0.28397508  0.11138734  0.14499807     0.02300
C200        C  0.26055794  0.06626100  0.14494503    -0.13900
C201        C  0.28113337  0.04190351  0.14598997    -0.00200
C202        C  0.32666123  0.06397424  0.14635012    -0.12400
C203        C  0.35123948  0.10927693  0.14527316     0.02300
C204        C  0.32908884  0.13233195  0.14496261    -0.11800
H205        H  0.22600331  0.04993372  0.14497592     0.07900
H206        H  0.34309293  0.04568857  0.14700902     0.05400
H207        H  0.34706162  0.16685429  0.14477477     0.05200
O208        O  0.06726620  0.25818326  0.11900456    -0.86200
O209        O  0.08023656  0.19663087  0.14111960    -0.83200
C210        C  0.07597077  0.16102549  0.14676629     0.97300
O211        O  0.03862143  0.12869248  0.14901672    -0.83300
O212        O  0.49290391  0.14723461  0.18372065    -0.85900
C213        C  0.98044913  0.17175025  0.19469874     1.01800
O214        O  0.97350942  0.19702332  0.18171152    -0.78700
O215        O  0.04107020  0.26418985  0.15445130    -0.78900
C216        C  0.07042172  0.28021421  0.13794833     1.01700
O217        O  0.00715424  0.19688805  0.08783507    -0.86200
O218        O  0.02989360  0.13862462  0.10216817    -0.83300
C219        C  0.49316020  0.11278267  0.09694703     0.97300
O220        O  0.46506889  0.10340875  0.11377098    -0.83300
O221        O  0.41943177  0.11373232  0.15213443    -0.85900
C222        C  0.39975135  0.13279758  0.14515565     1.01800
O223        O  0.42074139  0.17175292  0.13857692    -0.78700
O224        O  0.48560817  0.23805209  0.11066331    -0.78900
C225        C  0.49035469  0.22417989  0.08953460     1.01700
Cr226      Cr  0.04305304  0.19623339  0.11456038     1.93700
Cr227      Cr  0.48095742  0.12766882  0.14842050     1.93200
Cr228      Cr  0.48209664  0.21501070  0.14595782     1.39100
O229        O  0.00103629  0.17878421  0.13682508    -1.23900
O230        O  0.19121598  0.31637829  0.13730798    -0.86200
O231        O  0.13096377  0.33223224  0.11769653    -0.83200
C232        C  0.10979934  0.32379498  0.13776173     0.97300
O233        O  0.12408409  0.35161809  0.15512483    -0.83300
O234        O  0.18950223  0.41968855  0.18332187    -0.85900
C235        C  0.21107811  0.40755889  0.19611541     1.01800
O236        O  0.23439783  0.39496406  0.18569123    -0.78700
O237        O  0.25804771  0.35620396  0.14836019    -0.78900
C238        C  0.22515654  0.31948837  0.14558441     1.01700
O239        O  0.25219715  0.37483205  0.10186207    -0.86200
O240        O  0.19357055  0.39798202  0.08889188    -0.83300
C241        C  0.16456006  0.40744992  0.08993674     0.97300
O242        O  0.15038571  0.41060036  0.11142101    -0.83300
O243        O  0.21754172  0.47475671  0.14009905    -0.85900
C244        C  0.25578539  0.49432750  0.14829493     1.01800
O245        O  0.27181335  0.47347244  0.15790029    -0.78700
O246        O  0.28860327  0.43683906  0.11887175    -0.78900
C247        C  0.28070907  0.41331912  0.10004496     1.01700
Cr248      Cr  0.19333089  0.35795217  0.11333097     1.93700
Cr249      Cr  0.17283256  0.41298478  0.14694809     1.93200
Cr250      Cr  0.25942906  0.41364137  0.15170846     1.39100
O251        O  0.20856261  0.39533777  0.13767072    -1.23900
O252        O  0.13138696  0.17000731  0.12106136    -0.86200
O253        O  0.19037983  0.24629409  0.14209992    -0.83200
C254        C  0.22523960  0.27886428  0.14736244     0.97300
O255        O  0.25913240  0.27611399  0.14876717    -0.83300
O256        O  0.24268619  0.21292455  0.18487578    -0.85900
C257        C  0.21859024  0.17734171  0.19535641     1.01800
O258        O  0.19677226  0.14365869  0.18275099    -0.78700
O259        O  0.13070530  0.14392565  0.15760672    -0.78900
C260        C  0.11379586  0.15694006  0.14201411     1.01700
O261        O  0.19487988  0.17510965  0.08939816    -0.86200
O262        O  0.24878188  0.25631563  0.10242842    -0.83300
C263        C  0.28015568  0.25099320  0.09847767     0.97300
O264        O  0.28933281  0.23166216  0.11489059    -0.83300
O265        O  0.27909611  0.17458399  0.15284726    -0.85900
C266        C  0.26074769  0.13612645  0.14532700     1.01800
O267        O  0.22226598  0.11776980  0.13842016    -0.78700
O268        O  0.15713698  0.11542593  0.11092191    -0.78900
C269        C  0.17310664  0.13538826  0.09027318     1.01700
Cr270      Cr  0.19263902  0.21045904  0.11558848     1.93700
Cr271      Cr  0.26397855  0.22148029  0.14960976     1.93200
Cr272      Cr  0.17887563  0.13413350  0.14669963     1.39100
O273        O  0.21220652  0.18811328  0.13749020    -1.23900
C274        C  0.13577176  0.51017440  0.96800771     0.79400
N275        N  0.14157210  0.03676496  0.97955191    -0.78900
C276        C  0.14417139  0.03670009  0.00485871     0.81800
N277        N  0.14111082  0.51248599  0.01838520    -0.78900
C278        C  0.12700118  0.47512019  0.00656582     0.81900
N279        N  0.12468220  0.47370687  0.98113218    -0.80600
C280        C  0.13528728  0.09339086  0.02505474    -0.02700
C281        C  0.16082155  0.07506816  0.02003372     0.07000
C282        C  0.19484233  0.08306192  0.03599804    -0.02800
C283        C  0.19758032  0.10124454  0.05952103    -0.02800
C284        C  0.16756168  0.11348508  0.06643705     0.07100
C285        C  0.13960677  0.11398034  0.04813872    -0.03000
Br286      Br  0.10949308  0.14479373  0.05396713    -0.01600
Br287      Br  0.09473006  0.08967677  0.00047172    -0.01600
Br288      Br  0.24371005  0.11105956  0.08151700    -0.01600
Br289      Br  0.23621704  0.06678327  0.02577149    -0.01600
C290        C  0.09705054  0.42899711  0.04350799    -0.02700
C291        C  0.12327849  0.44004528  0.02202287     0.07000
C292        C  0.15653957  0.43067598  0.02093486    -0.02800
C293        C  0.16642391  0.41460550  0.04228585    -0.02800
C294        C  0.14642350  0.41295250  0.06586350     0.07100
C295        C  0.10881479  0.41633600  0.06564740    -0.03000
Br296      Br  0.07192349  0.40315800  0.09475253    -0.01600
Br297      Br  0.04734175  0.43592556  0.04278491    -0.01600
Br298      Br  0.20605611  0.39380846  0.03743303    -0.01600
Br299      Br  0.19300395  0.44609007  0.99142919    -0.01600
C300        C  0.31053812  0.27304752  0.02884764    -0.02700
C301        C  0.35555070  0.29492876  0.03024215     0.07000
C302        C  0.37469711  0.30924927  0.05407255    -0.02800
C303        C  0.35062171  0.29235732  0.07620209    -0.02800
C304        C  0.30578459  0.26787604  0.07496682     0.07100
C305        C  0.28585474  0.26204011  0.05117666    -0.03000
Br306      Br  0.22502065  0.23879379  0.04822572    -0.01600
Br307      Br  0.28182218  0.25593310  0.99689371    -0.01600
Br308      Br  0.37923709  0.30623104  0.10823389    -0.01600
Br309      Br  0.43454194  0.35183092  0.05633363    -0.01600
C310        C  0.41993143  0.21368661  0.03613265    -0.02700
C311        C  0.44882038  0.24389163  0.01875081     0.07000
C312        C  0.49263646  0.26664274  0.02431358    -0.02800
C313        C  0.50689297  0.25993076  0.04752465    -0.02800
C314        C  0.47664807  0.23492246  0.06619966     0.07100
C315        C  0.43291288  0.21422423  0.06080881    -0.03000
Br316      Br  0.39054971  0.19112704  0.08733190    -0.01600
Br317      Br  0.36051939  0.17795917  0.02742515    -0.01600
Br318      Br  0.06356921  0.27865938  0.05073896    -0.01600
Br319      Br  0.53176577  0.30988175  0.00133329    -0.01600
C320        C  0.33229583  0.41864250  0.03718110    -0.02700
C321        C  0.33206654  0.45345288  0.02570156     0.07000
C322        C  0.31538491  0.47576954  0.03895705    -0.02800
C323        C  0.30080816  0.46452154  0.06389786    -0.02800
C324        C  0.30203121  0.43010545  0.07553879     0.07100
C325        C  0.31861103  0.40799416  0.06223449    -0.03000
Br326      Br  0.32935475  0.36855298  0.08011361    -0.01600
Br327      Br  0.35545320  0.38856312  0.01900143    -0.01600
Br328      Br  0.28020206  0.49710855  0.08191614    -0.01600
Br329      Br  0.31596128  0.52421633  0.02349854    -0.01600
C330        C  0.49585607  0.05808871  0.03667585    -0.02700
C331        C  0.47155944  0.06900309  0.02071658     0.07000
C332        C  0.45723924  0.09624627  0.02988235    -0.02800
C333        C  0.45789700  0.10332099  0.05580066    -0.02800
C334        C  0.48303828  0.09386489  0.07163065     0.07100
C335        C  0.50358650  0.07259032  0.06173409    -0.03000
Br336      Br  0.03257818  0.05078665  0.08450924    -0.01600
Br337      Br  0.51014587  0.01582853  0.02580232    -0.01600
Br338      Br  0.41723028  0.11679639  0.07006290    -0.01600
Br339      Br  0.42738174  0.11506772  0.00795800    -0.01600
C340        C  0.23501910  0.15491489  0.26278213    -0.02700
C341        C  0.20838983  0.16664469  0.27585981     0.07000
C342        C  0.18584035  0.18275760  0.26252270    -0.02800
C343        C  0.18943965  0.18654022  0.23615825    -0.02800
C344        C  0.21581446  0.17451561  0.22305003     0.07100
C345        C  0.23857917  0.15863565  0.23639327    -0.03000
Br346      Br  0.27564902  0.14330129  0.21850442    -0.01600
Br347      Br  0.26817209  0.13585361  0.28126262    -0.01600
Br348      Br  0.15801255  0.20782903  0.21785436    -0.01600
Br349      Br  0.15029064  0.19997461  0.28051387    -0.01600
C350        C  0.24358656  0.27939477  0.39158114    -0.02700
C351        C  0.28036955  0.28267320  0.40271400     0.07000
C352        C  0.30685007  0.27158385  0.38899872    -0.02800
C353        C  0.29393781  0.25247641  0.36536066    -0.02800
C354        C  0.25488102  0.24506736  0.35541011     0.07100
C355        C  0.23105875  0.26084887  0.36777564    -0.03000
Br356      Br  0.17891789  0.25278665  0.35296133    -0.01600
Br357      Br  0.20939951  0.29844644  0.40943238    -0.01600
Br358      Br  0.32720955  0.23234380  0.34757750    -0.01600
Br359      Br  0.36069248  0.28277326  0.40257135    -0.01600
C360        C  0.11329837  0.07645402  0.35917742    -0.02700
C361        C  0.15810834  0.09669321  0.36005407     0.07000
C362        C  0.17770936  0.09509767  0.38261764    -0.02800
C363        C  0.15417519  0.08276462  0.40522878    -0.02800
C364        C  0.11015117  0.06873141  0.40503108     0.07100
C365        C  0.08913705  0.06095430  0.38154389    -0.03000
Br366      Br  0.02775803  0.02883128  0.37926706    -0.01600
Br367      Br  0.08528725  0.07358152  0.32794241    -0.01600
Br368      Br  0.18169351  0.08295476  0.43620026    -0.01600
Br369      Br  0.23803595  0.11394047  0.38266558    -0.01600
C370        C  0.42797185  0.08118158  0.37043263    -0.02700
C371        C  0.46385453  0.11253251  0.35720779     0.07000
C372        C  0.50424877  0.13268523  0.36855142    -0.02800
C373        C  0.50823684  0.12377372  0.39357154    -0.02800
C374        C  0.47180638  0.09441093  0.40724698     0.07100
C375        C  0.43165981  0.07325434  0.39578001    -0.03000
Br376      Br  0.38195501  0.03474997  0.41506826    -0.01600
Br377      Br  0.37319827  0.05201995  0.35410495    -0.01600
Br378      Br  0.05956088  0.14687354  0.40048623    -0.01600
Br379      Br  0.55324757  0.17636454  0.35082650    -0.01600
C380        C  0.45659542  0.26572420  0.35190676    -0.02700
C381        C  0.42917750  0.22151073  0.35295198     0.07000
C382        C  0.40417283  0.20345132  0.37481646    -0.02800
C383        C  0.41599110  0.22596641  0.39757356    -0.02800
C384        C  0.44986776  0.26879469  0.39769035     0.07100
C385        C  0.46440160  0.28985640  0.37396275    -0.03000
Br386      Br  0.99451090  0.34833215  0.36923845    -0.01600
Br387      Br  0.97584960  0.28736677  0.31983102    -0.01600
Br388      Br  0.38429607  0.19712597  0.42760660    -0.01600
Br389      Br  0.35742699  0.14529985  0.37389468    -0.01600
C390        C  0.42935808  0.15999971  0.25776503    -0.02700
C391        C  0.46401619  0.17094648  0.27384728     0.07000
C392        C  0.50415790  0.18061620  0.26380108    -0.02800
C393        C  0.00471693  0.19609030  0.23860404    -0.02800
C394        C  0.47536129  0.16987947  0.22156802     0.07100
C395        C  0.43507379  0.15987882  0.23165522    -0.03000
Br396      Br  0.38682390  0.14377133  0.20993683    -0.01600
Br397      Br  0.37338190  0.14257428  0.27159286    -0.01600
Br398      Br  0.06132771  0.23367267  0.22577070    -0.01600
Br399      Br  0.04046117  0.23104214  0.28738820    -0.01600
C400        C  0.25846568  0.46333252  0.38644597    -0.02700
C401        C  0.26473106  0.44611641  0.36396416     0.07000
C402        C  0.29447866  0.43176904  0.36375508    -0.02800
C403        C  0.31220231  0.42834456  0.38659285    -0.02800
C404        C  0.29708254  0.43566206  0.40979414     0.07100
C405        C  0.27256307  0.45603016  0.40944707    -0.03000
Br406      Br  0.25888428  0.47466708  0.44037604    -0.01600
Br407      Br  0.22786866  0.49456107  0.38583703    -0.01600
Br408      Br  0.35620080  0.41283567  0.38531867    -0.01600
Br409      Br  0.30835335  0.41351015  0.33277684    -0.01600
C410        C  0.09321218  0.35559662  0.39385243    -0.02700
C411        C  0.09527148  0.39379851  0.40226422     0.07000
C412        C  0.10196890  0.42532987  0.38426267    -0.02800
C413        C  0.11089790  0.42073744  0.35907635    -0.02800
C414        C  0.11590431  0.38615514  0.35206980     0.07100
C415        C  0.10186392  0.35143541  0.36852324    -0.03000
Br416      Br  0.10039848  0.30050624  0.35642947    -0.01600
Br417      Br  0.07912072  0.30857630  0.41622593    -0.01600
Br418      Br  0.12451027  0.96230866  0.33372269    -0.01600
Br419      Br  0.10342350  0.47691530  0.39412268    -0.01600
C420        C  0.19122096  0.37481057  0.26478009    -0.02700
C421        C  0.20653663  0.41461591  0.27665848     0.07000
C422        C  0.22388027  0.45215105  0.26209199    -0.02800
C423        C  0.22566095  0.44983851  0.23571570    -0.02800
C424        C  0.21016792  0.40995119  0.22382108     0.07100
C425        C  0.19358049  0.37258107  0.23845479    -0.03000
Br426      Br  0.17282846  0.31823504  0.22228486    -0.01600
Br427      Br  0.16669046  0.32318232  0.28463264    -0.01600
Br428      Br  0.25043408  0.50158087  0.21597462    -0.01600
Br429      Br  0.24311405  0.50647336  0.27818009    -0.01600
C430        C  0.25651743  0.31293778  0.57216448    -0.02700
C431        C  0.29132923  0.34711293  0.55944507     0.07000
C432        C  0.32320753  0.38123766  0.57348173    -0.02800
C433        C  0.32138921  0.38003494  0.59990298    -0.02800
C434        C  0.28737485  0.34539069  0.61242193     0.07100
C435        C  0.25447188  0.31238213  0.59860785    -0.03000
Br436      Br  0.20616091  0.26700553  0.61612084    -0.01600
Br437      Br  0.21029038  0.26776468  0.55362338    -0.01600
Br438      Br  0.36610542  0.42537382  0.61916092    -0.01600
Br439      Br  0.37054682  0.42913864  0.55684261    -0.01600
C440        C  0.08918051  0.98074764  0.90024188    -0.02700
C441        C  0.12654263  0.00931587  0.88686528     0.07000
C442        C  0.16544453  0.03351842  0.89960583    -0.02800
C443        C  0.16687505  0.02955505  0.92573707    -0.02800
C444        C  0.12949788  0.00126292  0.93912448     0.07100
C445        C  0.09445109  0.48560961  0.92846578    -0.03000
Br446      Br  0.04280446  0.45300874  0.94793898    -0.01600
Br447      Br  0.03806535  0.45521439  0.88554112    -0.01600
Br448      Br  0.22057098  0.06161094  0.94307118    -0.01600
Br449      Br  0.21731045  0.07079756  0.88123761    -0.01600
C450        C  0.38469767  0.29158954  0.90129378    -0.02700
C451        C  0.36874390  0.25066754  0.89074092     0.07000
C452        C  0.35960811  0.21574097  0.90637608    -0.02800
C453        C  0.36600518  0.22160088  0.93250021    -0.02800
C454        C  0.38265706  0.26271060  0.94299276     0.07100
C455        C  0.39201850  0.29767460  0.92728749    -0.03000
Br456      Br  0.41797925  0.35454604  0.94103409    -0.01600
Br457      Br  0.39763275  0.33985669  0.88013083    -0.01600
Br458      Br  0.35127851  0.17304458  0.95388200    -0.01600
Br459      Br  0.34035988  0.16037000  0.89176591    -0.01600
C460        C  0.34970479  0.29840159  0.73081328    -0.02700
C461        C  0.31082409  0.26316763  0.73941197     0.07000
C462        C  0.27871706  0.23951251  0.72176421    -0.02800
C463        C  0.28419826  0.25193019  0.69639657    -0.02800
C464        C  0.31978985  0.29064262  0.68901439     0.07100
C465        C  0.35425453  0.31138885  0.70553392    -0.03000
Br466      Br  0.40473395  0.36226924  0.69404181    -0.01600
Br467      Br  0.39677604  0.33053767  0.75299526    -0.01600
Br468      Br  0.23908901  0.22108203  0.67257924    -0.01600
Br469      Br  0.22458942  0.19422961  0.73292804    -0.01600
C470        C  0.35433313  0.01824617  0.93359448    -0.02700
C471        C  0.38885889  0.01381505  0.94226875     0.07000
C472        C  0.40870239  0.50317434  0.92498585    -0.02800
C473        C  0.40984712  0.01180754  0.89871555    -0.02800
C474        C  0.37425644  0.01458645  0.89005311     0.07100
C475        C  0.34712573  0.01874107  0.90761915    -0.03000
Br476      Br  0.30175217  0.02807564  0.89614251    -0.01600
Br477      Br  0.31807303  0.02617320  0.95710634    -0.01600
Br478      Br  0.42827256  0.48042841  0.87663223    -0.01600
Br479      Br  0.44808701  0.48607768  0.93752522    -0.01600
C480        C  0.27668848  0.42438982  0.69831796    -0.02700
C481        C  0.26103780  0.38029727  0.69887431     0.07000
C482        C  0.24286139  0.35735253  0.72139663    -0.02800
C483        C  0.25038554  0.37915850  0.74424539    -0.02800
C484        C  0.27114601  0.42390095  0.74419707     0.07100
C485        C  0.27890888  0.44578012  0.72081714    -0.03000
Br486      Br  0.29220633  0.50436536  0.71853297    -0.01600
Br487      Br  0.30000253  0.45640950  0.66764368    -0.01600
Br488      Br  0.23123750  0.34767115  0.77540191    -0.01600
Br489      Br  0.21082244  0.29577149  0.72105987    -0.01600
C490        C  0.43793256  0.25056347  0.68778317    -0.02700
C491        C  0.48232989  0.26739488  0.68849601     0.07000
C492        C  0.50089827  0.26173744  0.71027622    -0.02800
C493        C  0.47849178  0.25168102  0.73316511    -0.02800
C494        C  0.43570795  0.24319617  0.73355553     0.07100
C495        C  0.41409391  0.23556098  0.71013126    -0.03000
Br496      Br  0.35254120  0.20118809  0.70732538    -0.01600
Br497      Br  0.40997861  0.25148038  0.65718593    -0.01600
Br498      Br  0.50705812  0.24813705  0.76288134    -0.01600
Br499      Br  0.05531887  0.26579826  0.70888229    -0.01600
C500        C  0.12566743  0.40350897  0.70125128    -0.02700
C501        C  0.09573278  0.40748989  0.68640418     0.07000
C502        C  0.08069861  0.43498189  0.69385730    -0.02800
C503        C  0.09289331  0.45576943  0.71710382    -0.02800
C504        C  0.11975804  0.44847694  0.73305119     0.07100
C505        C  0.13663196  0.42287712  0.72491112    -0.03000
Br506      Br  0.17343040  0.41308929  0.74647788    -0.01600
Br507      Br  0.14908492  0.36878113  0.68966821    -0.01600
Br508      Br  0.06886587  0.49040375  0.72806779    -0.01600
Br509      Br  0.03923696  0.43985538  0.67358225    -0.01600
C510        C  0.00798914  0.35424222  0.59535494    -0.02700
C511        C  0.03121172  0.33689163  0.60650373     0.07000
C512        C  0.05068635  0.31920039  0.59159746    -0.02800
C513        C  0.04746229  0.31935253  0.56535729    -0.02800
C514        C  0.02497787  0.33752968  0.55406544     0.07100
C515        C  0.00458094  0.35426047  0.56907409    -0.03000
Br516      Br  0.97020533  0.37497497  0.55364396    -0.01600
Br517      Br  0.98052140  0.37739647  0.61616333    -0.01600
Br518      Br  0.57378615  0.29694950  0.54599677    -0.01600
Br519      Br  0.58145725  0.29950787  0.60820955    -0.01600
C520        C  0.10630184  0.14120870  0.71815449    -0.02700
C521        C  0.11015600  0.12408325  0.69503709     0.07000
C522        C  0.13567665  0.10481086  0.69381606    -0.02800
C523        C  0.15069808  0.09636528  0.71620240    -0.02800
C524        C  0.13685704  0.10381716  0.73979524     0.07100
C525        C  0.11680815  0.12862390  0.74064212    -0.03000
Br526      Br  0.10490737  0.14661943  0.77239562    -0.01600
Br527      Br  0.08325991  0.17926716  0.71896093    -0.01600
Br528      Br  0.19026690  0.07521387  0.71374239    -0.01600
Br529      Br  0.14756116  0.08696505  0.66205081    -0.01600
C530        C  0.94438296  0.03179867  0.69823446    -0.02700
C531        C  0.45822152  0.07265349  0.68499750     0.07000
C532        C  0.45337587  0.10554406  0.69567854    -0.02800
C533        C  0.43214555  0.09885496  0.71879947    -0.02800
C534        C  0.41720454  0.05983868  0.73142352     0.07100
C535        C  0.41688275  0.02521953  0.71909029    -0.03000
Br536      Br  0.39228975  0.97017155  0.73528975    -0.01600
Br537      Br  0.95101720  0.98618114  0.68435573    -0.01600
Br538      Br  0.42305064  0.14247886  0.73306896    -0.01600
Br539      Br  0.48101230  0.16114640  0.68005797    -0.01600
C540        C  0.05650569  0.12498130  0.56780038    -0.02700
C541        C  0.04332033  0.08485377  0.55665108     0.07000
C542        C  0.03302100  0.04916962  0.57193240    -0.02800
C543        C  0.03569678  0.05348556  0.59820645    -0.02800
C544        C  0.04785944  0.09324289  0.60924905     0.07100
C545        C  0.05815033  0.12894114  0.59411178    -0.03000
Br546      Br  0.07208212  0.18254373  0.60966075    -0.01600
Br547      Br  0.07292726  0.17481890  0.54724103    -0.01600
Br548      Br  0.51700375  0.00374767  0.62114827    -0.01600
Br549      Br  0.50530080  0.99254436  0.55904443    -0.01600
C550        C  0.04426298  0.59562268  0.63900190     0.79400
N551        N  0.07972128  0.61274187  0.65379747    -0.78900
C552        C  0.07527131  0.61474200  0.67907935     0.81800
N553        N  0.03589717  0.59919473  0.68896516    -0.78900
C554        C  0.00100950  0.58276299  0.67454669     0.81900
N555        N  0.00473795  0.58076541  0.64938102    -0.80600
C556        C  0.03041726  0.83452738  0.63354091     0.79400
N557        N  0.06107233  0.87003790  0.64524512    -0.78900
C558        C  0.06554624  0.86912164  0.67042194     0.81800
N559        N  0.03937659  0.83387306  0.68352467    -0.78900
C560        C  0.00914394  0.79842082  0.67231672     0.81900
N561        N  0.00426217  0.79857595  0.64703925    -0.80600
C562        C  0.42841063  0.94636324  0.81199686     0.02300
C563        C  0.47360031  0.96957395  0.81040014    -0.13900
C564        C  0.99719415  0.94754029  0.80867539    -0.00200
C565        C  0.47644703  0.90370826  0.81115852    -0.12400
C566        C  0.43167061  0.87935922  0.81340783     0.02300
C567        C  0.40802532  0.90123920  0.81398088    -0.11800
H568        H  0.48983942  0.00372545  0.80954392     0.07900
H569        H  0.49493586  0.88746182  0.81108633     0.05400
H570        H  0.37317975  0.88281057  0.81552221     0.05200
O571        O  0.28773181  0.53661104  0.80997560    -0.86200
O572        O  0.36378697  0.59607626  0.78709808    -0.83200
C573        C  0.38181237  0.61776400  0.80620071     0.97300
O574        O  0.39549782  0.60204858  0.82238658    -0.83300
O575        O  0.39738931  0.53596546  0.84845548    -0.85900
C576        C  0.36539451  0.51338596  0.86243269     1.01800
O577        O  0.32920763  0.98807095  0.85406806    -0.78700
O578        O  0.26100264  0.96716583  0.81975764    -0.78900
C579        C  0.25626655  0.50090994  0.81575006     1.01700
O580        O  0.27707444  0.97586197  0.77293954    -0.86200
O581        O  0.35956073  0.53183126  0.75669250    -0.83300
C582        C  0.39936816  0.55453311  0.75636962     0.97300
O583        O  0.42025762  0.57222153  0.77620153    -0.83300
O584        O  0.42028862  0.50756109  0.80409798    -0.85900
C585        C  0.40317826  0.96962470  0.81229822     1.01800
O586        O  0.36537289  0.95145797  0.82121022    -0.78700
O587        O  0.30465057  0.93781266  0.78499213    -0.78900
C588        C  0.28411675  0.94591568  0.76882605     1.01700
Cr589      Cr  0.32439163  0.53463692  0.78336203     1.93700
Cr590      Cr  0.40398003  0.55192104  0.81229243     1.93200
Cr591      Cr  0.31725589  0.96504789  0.81921146     1.39100
O592        O  0.34904029  0.51750225  0.80523260    -1.23900
O593        O  0.37227550  0.66850535  0.78635209    -0.86200
O594        O  0.29624321  0.65323252  0.80640189    -0.83200
C595        C  0.26482265  0.65652432  0.81366175     0.97300
O596        O  0.26863732  0.69346039  0.81596739    -0.83300
O597        O  0.32991962  0.73542521  0.85371850    -0.85900
C598        C  0.36562240  0.74767057  0.86414094     1.01800
O599        O  0.39870498  0.75614154  0.85120464    -0.78700
O600        O  0.39752911  0.68816578  0.82375357    -0.78900
C601        C  0.38500295  0.66058419  0.80633161     1.01700
O602        O  0.37571495  0.73292879  0.75709697    -0.86200
O603        O  0.29406792  0.71012228  0.77045637    -0.83300
C604        C  0.30712083  0.74880041  0.76653895     0.97300
O605        O  0.32119048  0.77349236  0.78493378    -0.83300
O606        O  0.37223831  0.81133084  0.82434447    -0.85900
C607        C  0.40974092  0.83132819  0.81526585     1.01800
O608        O  0.42823395  0.81095032  0.80785992    -0.78700
O609        O  0.43099178  0.74572059  0.77968403    -0.78900
C610        C  0.41378923  0.74129536  0.75817614     1.01700
Cr611      Cr  0.33566795  0.69367105  0.78185353     1.93700
Cr612      Cr  0.32477488  0.75145114  0.81878702     1.93200
Cr613      Cr  0.41030059  0.74917261  0.81513006     1.39100
O614        O  0.35736955  0.73179319  0.80578776    -1.23900
O615        O  0.22642042  0.58349776  0.80866276    -0.86200
O616        O  0.20996675  0.50701121  0.78834736    -0.83200
C617        C  0.21397328  0.49533038  0.80979645     0.97300
O618        O  0.18098022  0.97897259  0.82440141    -0.83300
O619        O  0.11217763  0.97830486  0.84680826    -0.85900
C620        C  0.12797352  0.51455136  0.86080678     1.01800
O621        O  0.13982902  0.55007981  0.85039758    -0.78700
O622        O  0.18722769  0.61331903  0.81521805    -0.78900
C623        C  0.22385890  0.61593643  0.81427529     1.01700
O624        O  0.17979621  0.59343123  0.76903343    -0.86200
O625        O  0.15255764  0.00910420  0.75460439    -0.83300
C626        C  0.13406704  0.96925176  0.75579877     0.97300
O627        O  0.13027270  0.95012311  0.77659872    -0.83300
O628        O  0.06535578  0.95378421  0.80120216    -0.85900
C629        C  0.04514520  0.97206355  0.80853919     1.01800
O630        O  0.06557582  0.51161022  0.81857881    -0.78700
O631        O  0.11412825  0.56948878  0.78105003    -0.78900
C632        C  0.14362475  0.58901153  0.76505962     1.01700
Cr633      Cr  0.18920401  0.54734828  0.78206830     1.93700
Cr634      Cr  0.12403878  0.96913602  0.81152042     1.93200
Cr635      Cr  0.12777379  0.55872317  0.81557228     1.39100
O636        O  0.14644639  0.52527780  0.80360679    -1.23900
C637        C  0.28584494  0.84036980  0.64016816     0.79400
N638        N  0.27133554  0.86135289  0.65516809    -0.78900
C639        C  0.27438245  0.85959606  0.68058155     0.81800
N640        N  0.29261411  0.83845762  0.69032882    -0.78900
C641        C  0.30622020  0.81717739  0.67591197     0.81900
N642        N  0.30237044  0.81729549  0.65061658    -0.80600
C643        C  0.19797307  0.91185186  0.30362936     0.79400
N644        N  0.15789660  0.89512658  0.31361397    -0.78900
C645        C  0.15271603  0.89259657  0.33886231     0.81800
N646        N  0.18698635  0.90738577  0.35377297    -0.78900
C647        C  0.22695080  0.92570171  0.34444302     0.81900
N648        N  0.23285760  0.92776726  0.31902545    -0.80600
C649        C  0.45740658  0.66646357  0.29967079     0.79400
N650        N  0.46371904  0.63824155  0.31333423    -0.78900
C651        C  0.45679002  0.63573423  0.33844906     0.81800
N652        N  0.44504561  0.66144434  0.34963036    -0.78900
C653        C  0.43865001  0.68940023  0.33659673     0.81900
N654        N  0.44504254  0.69237168  0.31129033    -0.80600
C655        C  0.08945288  0.77249952  0.47894400     0.02300
C656        C  0.07005226  0.72777417  0.47864132    -0.13900
C657        C  0.09455685  0.70704774  0.48001391    -0.00200
C658        C  0.13956984  0.73221607  0.48089417    -0.12400
C659        C  0.16039247  0.77729171  0.48082392     0.02300
C660        C  0.13477162  0.79687832  0.48018369    -0.12100
H661        H  0.03555890  0.70903011  0.47806484     0.07900
H662        H  0.15861401  0.71645302  0.48181875     0.05400
H663        H  0.15013126  0.83108815  0.48031959     0.05200
O664        O  0.43605882  0.83117986  0.45013008    -0.86200
O665        O  0.99928499  0.90907812  0.46889720    -0.83200
C666        C  0.03419226  0.93981843  0.47613572     0.97300
O667        O  0.06721084  0.93572459  0.47726173    -0.83300
O668        O  0.04557057  0.87510153  0.51504972    -0.85900
C669        C  0.02188624  0.83996481  0.52608142     1.01800
O670        O  0.49935096  0.80529354  0.51360184    -0.78700
O671        O  0.43292004  0.80691647  0.48755545    -0.78900
C672        C  0.41745159  0.82039672  0.47100561     1.01700
O673        O  0.49649237  0.82898158  0.41905578    -0.86200
O674        O  0.05670597  0.90963506  0.43189271    -0.83300
C675        C  0.08236555  0.89647172  0.42783096     0.97300
O676        O  0.09370351  0.88302798  0.44635075    -0.83300
O677        O  0.08013230  0.83214698  0.48676861    -0.85900
C678        C  0.06295707  0.79425370  0.47881828     1.01800
O679        O  0.02444964  0.77562444  0.47106535    -0.78700
O680        O  0.45623166  0.77305508  0.44222790    -0.78900
C681        C  0.46862435  0.79034979  0.42049288     1.01700
Cr682      Cr  0.99884586  0.86885803  0.44429979     1.93700
Cr683      Cr  0.06803875  0.87956068  0.48041162     1.93200
Cr684      Cr  0.48053608  0.79374885  0.47765911     1.39100
O685        O  0.01597174  0.84697655  0.46791922    -1.23900
O686        O  0.99996199  0.97898333  0.47437434    -0.86200
O687        O  0.43809433  0.99954163  0.45874816    -0.83200
C688        C  0.42265313  0.99335492  0.48041232     0.97300
O689        O  0.44356268  0.52069905  0.49527426    -0.83300
O690        O  0.51249328  0.58888376  0.51892575    -0.85900
C691        C  0.03949574  0.57934294  0.53176677     1.01800
O692        O  0.06193476  0.56741775  0.51966695    -0.78700
O693        O  0.07048940  0.51720959  0.48208582    -0.78900
C694        C  0.03504104  0.98076490  0.47855118     1.01700
O695        O  0.05566218  0.52655156  0.43597641    -0.86200
O696        O  0.50379803  0.55724509  0.42603083    -0.83300
C697        C  0.48193022  0.57514160  0.42832199     0.97300
O698        O  0.46558881  0.57656111  0.44938216    -0.83300
O699        O  0.03264487  0.63861582  0.47710328    -0.85900
C700        C  0.07236228  0.65920193  0.48106491     1.01800
O701        O  0.09266945  0.63977160  0.48639554    -0.78700
O702        O  0.09884376  0.59109452  0.44805634    -0.78900
C703        C  0.08777666  0.56226847  0.43173349     1.01700
Cr704      Cr  0.00179010  0.51852911  0.45166476     1.93700
Cr705      Cr  0.49069893  0.57935644  0.48384399     1.93200
Cr706      Cr  0.07715860  0.57752121  0.48353930     1.39100
O707        O  0.02378900  0.55915941  0.47416355    -1.23900
O708        O  0.38988655  0.92034265  0.47818017    -0.86200
O709        O  0.37532749  0.84544496  0.45468639    -0.83200
C710        C  0.37970366  0.82676457  0.47317707     0.97300
O711        O  0.35257737  0.81536363  0.49081637    -0.83300
O712        O  0.28757274  0.81645139  0.51959482    -0.85900
C713        C  0.29142635  0.84840916  0.53172666     1.01800
O714        O  0.29660574  0.88171857  0.52078909    -0.78700
O715        O  0.34718545  0.94606918  0.48611961    -0.78900
C716        C  0.38490674  0.95115272  0.48458816     1.01700
O717        O  0.34168199  0.92981965  0.43920129    -0.86200
O718        O  0.31416624  0.84753499  0.42573367    -0.83300
C719        C  0.29710861  0.80768942  0.42664250     0.97300
O720        O  0.29380327  0.78769864  0.44708355    -0.83300
O721        O  0.23070682  0.78579555  0.47758139    -0.85900
C722        C  0.20864111  0.80358185  0.48167133     1.01800
O723        O  0.22686203  0.84309385  0.48657299    -0.78700
O724        O  0.27552124  0.90147893  0.45000335    -0.78900
C725        C  0.30480877  0.92228743  0.43413633     1.01700
Cr726      Cr  0.35212175  0.88390597  0.45160328     1.93700
Cr727      Cr  0.29276569  0.80586768  0.48314047     1.93200
Cr728      Cr  0.28835120  0.89081521  0.48514918     1.39100
O729        O  0.31041462  0.85956090  0.47387754    -1.23900
C730        C  0.20812241  0.66684886  0.30566019     0.79400
N731        N  0.18457522  0.63083974  0.31984096    -0.78900
C732        C  0.18587366  0.63387178  0.34540094     0.81800
N733        N  0.20967222  0.67216524  0.35609401    -0.78900
C734        C  0.23279498  0.70743089  0.34227415     0.81900
N735        N  0.23231771  0.70520946  0.31694821    -0.80600
C736        C  0.39533627  0.01097291  0.96958265     0.79400
N737        N  0.43119887  0.54001730  0.98005125    -0.78900
C738        C  0.43715424  0.53371505  0.00452246     0.81800
N739        N  0.40864583  0.00338656  0.01858496    -0.78900
C740        C  0.37044751  0.97692192  0.00877680     0.81900
N741        N  0.36309978  0.98050515  0.98411129    -0.80600
C742        C  0.39507607  0.77270963  0.97124174     0.79400
N743        N  0.42299944  0.76031224  0.97930763    -0.78900
C744        C  0.43420436  0.76517914  0.00376860     0.81800
N745        N  0.41649853  0.78057148  0.01984836    -0.78900
C746        C  0.38718243  0.79091851  0.01297007     0.81900
N747        N  0.37602254  0.78682331  0.98820380    -0.80600
C748        C  0.28738558  0.61261664  0.14696832     0.02300
C749        C  0.26306801  0.56759208  0.14711977    -0.13900
C750        C  0.28269990  0.54237783  0.14712776    -0.00200
C751        C  0.32818994  0.56342088  0.14638391    -0.12400
C752        C  0.35349031  0.60861624  0.14506926     0.02300
C753        C  0.33232505  0.63261007  0.14572671    -0.11800
H754        H  0.22856179  0.55200977  0.14797706     0.07900
H755        H  0.34395845  0.54447941  0.14629444     0.05400
H756        H  0.35091869  0.66710888  0.14530655     0.05200
O757        O  0.06652901  0.75679336  0.11827632    -0.86200
O758        O  0.08274687  0.69723449  0.14025764    -0.83200
C759        C  0.07952048  0.66225274  0.14645118     0.97300
O760        O  0.04252604  0.62929078  0.14918197    -0.83300
O761        O  0.49590531  0.64815854  0.18268585    -0.85900
C762        C  0.98563230  0.67145917  0.19580877     1.01800
O763        O  0.97781027  0.69645215  0.18311482    -0.78700
O764        O  0.04380453  0.76269245  0.15486493    -0.78900
C765        C  0.07185999  0.77854425  0.13766166     1.01700
O766        O  0.00524491  0.69324808  0.08881270    -0.86200
O767        O  0.03095582  0.63735830  0.10286847    -0.83300
C768        C  0.49494678  0.60999535  0.09657458     0.97300
O769        O  0.46731449  0.60096261  0.11363952    -0.83300
O770        O  0.42176184  0.61286176  0.15150457    -0.85900
C771        C  0.40182515  0.63140649  0.14395368     1.01800
O772        O  0.42248460  0.66970415  0.13624788    -0.78700
O773        O  0.48681767  0.73568629  0.10824160    -0.78900
C774        C  0.49131883  0.72105724  0.08731939     1.01700
Cr775      Cr  0.04352975  0.69488138  0.11455998     1.93700
Cr776      Cr  0.48346526  0.62690739  0.14777695     1.93200
Cr777      Cr  0.48323564  0.71335593  0.14382469     1.39100
O778        O  0.00296259  0.67763508  0.13766174    -1.23900
O779        O  0.19625728  0.81677388  0.14017511    -0.86200
O780        O  0.13475747  0.82744588  0.11810453    -0.83200
C781        C  0.11227085  0.82102945  0.13744988     0.97300
O782        O  0.12559491  0.84992677  0.15411143    -0.83300
O783        O  0.18869872  0.91858782  0.18215921    -0.85900
C784        C  0.20969419  0.90667274  0.19569344     1.01800
O785        O  0.23479836  0.89560742  0.18611098    -0.78700
O786        O  0.26282063  0.85836788  0.15070595    -0.78900
C787        C  0.23041807  0.82121674  0.14891797     1.01700
O788        O  0.25714868  0.87385455  0.10366459    -0.86200
O789        O  0.19546400  0.89155983  0.08799046    -0.83300
C790        C  0.16650367  0.90123785  0.08835335     0.97300
O791        O  0.15265310  0.90641698  0.10947747    -0.83300
O792        O  0.21763246  0.97296508  0.13831398    -0.85900
C793        C  0.25526775  0.99368372  0.14729747     1.01800
O794        O  0.27158594  0.97381491  0.15783585    -0.78700
O795        O  0.29138413  0.93688462  0.11993810    -0.78900
C796        C  0.28487144  0.91264490  0.10159615     1.01700
Cr797      Cr  0.19727799  0.85520038  0.11434458     1.93700
Cr798      Cr  0.17384229  0.91094639  0.14549975     1.93200
Cr799      Cr  0.26137762  0.91442777  0.15255840     1.39100
O800        O  0.21087888  0.89424173  0.13758109    -1.23900
O801        O  0.13841538  0.67564763  0.12253618    -0.86200
O802        O  0.19651065  0.74831870  0.14700990    -0.83200
C803        C  0.23106330  0.78116095  0.15213170     0.97300
O804        O  0.26508282  0.77868193  0.15370379    -0.83300
O805        O  0.24608565  0.71264958  0.18837396    -0.85900
C806        C  0.22043745  0.67665906  0.19790687     1.01800
O807        O  0.19862001  0.64392663  0.18454869    -0.78700
O808        O  0.13446934  0.64582142  0.15826341    -0.78900
C809        C  0.11866112  0.65993773  0.14264185     1.01700
O810        O  0.20379216  0.68308522  0.09178962    -0.86200
O811        O  0.25748446  0.76262583  0.10752424    -0.83300
C812        C  0.28848073  0.75678927  0.10328903     0.97300
O813        O  0.29655092  0.73598222  0.11927947    -0.83300
O814        O  0.28370440  0.67610926  0.15602100    -0.85900
C815        C  0.26507447  0.63809152  0.14778076     1.01800
O816        O  0.22695181  0.62062795  0.14038451    -0.78700
O817        O  0.16500442  0.62154150  0.11156492    -0.78900
C818        C  0.18222086  0.64329925  0.09157986     1.01700
Cr819      Cr  0.20020235  0.71591176  0.11902086     1.93700
Cr820      Cr  0.26933544  0.72358736  0.15358487     1.93200
Cr821      Cr  0.18357922  0.63697711  0.14807813     1.39100
O822        O  0.21810715  0.69139129  0.14034144    -1.23900
C823        C  0.13047107  0.00026128  0.96662077     0.79400
N824        N  0.15056842  0.54795829  0.98021252    -0.78900
C825        C  0.15310198  0.54875794  0.00554573     0.81800
N826        N  0.13587051  0.00082449  0.01697231    -0.78900
C827        C  0.12539237  0.96471494  0.00451944     0.81900
N828        N  0.12304718  0.96414602  0.97904808    -0.80600
C829        C  0.14877145  0.60822396  0.02499493    -0.02700
C830        C  0.17245648  0.58788738  0.02008541     0.07000
C831        C  0.20480061  0.59299912  0.03662251    -0.02800
C832        C  0.20621961  0.60887297  0.06069804    -0.02800
C833        C  0.17786608  0.62342901  0.06720781     0.07100
C834        C  0.15260818  0.62752429  0.04844802    -0.03000
Br835      Br  0.12419741  0.65996974  0.05454292    -0.01600
Br836      Br  0.11028235  0.60779153  0.00004260    -0.01600
Br837      Br  0.24740787  0.61101984  0.08427696    -0.01600
Br838      Br  0.24450202  0.57454914  0.02659093    -0.01600
C839        C  0.09679474  0.91770893  0.04104400    -0.02700
C840        C  0.12352667  0.93013833  0.01972624     0.07000
C841        C  0.15848376  0.92330261  0.01903592    -0.02800
C842        C  0.16916159  0.90821793  0.04056882    -0.02800
C843        C  0.14809970  0.90518499  0.06394158     0.07100
C844        C  0.10913307  0.90599401  0.06331212    -0.03000
Br845      Br  0.07116279  0.89046225  0.09207293    -0.01600
Br846      Br  0.04628926  0.92322508  0.04023511    -0.01600
Br847      Br  0.21135909  0.89064822  0.03633213    -0.01600
Br848      Br  0.19601119  0.94128358  0.98998414    -0.01600
C849        C  0.31842134  0.78015441  0.03354072    -0.02700
C850        C  0.36297511  0.79628511  0.03434625     0.07000
C851        C  0.38329167  0.80791204  0.05815339    -0.02800
C852        C  0.35914798  0.79404490  0.08053582    -0.02800
C853        C  0.31427750  0.77375959  0.07971115     0.07100
C854        C  0.29455640  0.77092092  0.05617000    -0.03000
Br855      Br  0.23497726  0.75454462  0.05402962    -0.01600
Br856      Br  0.28904476  0.76956990  0.00189827    -0.01600
Br857      Br  0.38810949  0.80624049  0.11246252    -0.01600
Br858      Br  0.44468399  0.84376418  0.06044027    -0.01600
C859        C  0.42370801  0.71008613  0.03217816    -0.02700
C860        C  0.45283238  0.74224288  0.01586385     0.07000
C861        C  0.49631680  0.76525826  0.02222614    -0.02800
C862        C  0.50958257  0.75764262  0.04553119    -0.02800
C863        C  0.47848073  0.73179899  0.06361832     0.07100
C864        C  0.43509940  0.71048021  0.05722426    -0.03000
Br865      Br  0.39118010  0.68886518  0.08288456    -0.01600
Br866      Br  0.36523213  0.67385615  0.02185959    -0.01600
Br867      Br  0.06664551  0.77513204  0.05448369    -0.01600
Br868      Br  0.53601216  0.81043048  0.00043702    -0.01600
C869        C  0.34185804  0.92045459  0.04036447    -0.02700
C870        C  0.33740866  0.95195143  0.02745020     0.07000
C871        C  0.31770203  0.97239847  0.03971878    -0.02800
C872        C  0.30188226  0.96080962  0.06439652    -0.02800
C873        C  0.30648326  0.92922297  0.07719382     0.07100
C874        C  0.32790066  0.91040795  0.06543322    -0.03000
Br875      Br  0.34539665  0.87786817  0.08547037    -0.01600
Br876      Br  0.37277731  0.89580040  0.02457234    -0.01600
Br877      Br  0.27472796  0.98910724  0.08054959    -0.01600
Br878      Br  0.31717327  0.02017743  0.02404160    -0.01600
C879        C  0.49499583  0.55651296  0.03510187    -0.02700
C880        C  0.46928960  0.56716850  0.02034997     0.07000
C881        C  0.45528940  0.59395225  0.03055580    -0.02800
C882        C  0.45717355  0.60029010  0.05653309    -0.02800
C883        C  0.48362393  0.59107780  0.07130468     0.07100
C884        C  0.50410669  0.57049927  0.06024635    -0.03000
Br885      Br  0.04242077  0.56203839  0.07874439    -0.01600
Br886      Br  0.51202223  0.51769294  0.02173791    -0.01600
Br887      Br  0.41669843  0.61263230  0.07227225    -0.01600
Br888      Br  0.42532358  0.61407708  0.00979979    -0.01600
C889        C  0.23783109  0.65709787  0.26553526    -0.02700
C890        C  0.20820141  0.66526843  0.27808872     0.07000
C891        C  0.18288192  0.67761871  0.26436526    -0.02800
C892        C  0.18640657  0.68068078  0.23800381    -0.02800
C893        C  0.21597343  0.67238811  0.22542413     0.07100
C894        C  0.24153364  0.66036617  0.23918689    -0.03000
Br895      Br  0.28231948  0.64943047  0.22195956    -0.01600
Br896      Br  0.27523439  0.64428404  0.28472412    -0.01600
Br897      Br  0.15115180  0.69665911  0.21905353    -0.01600
Br898      Br  0.14493651  0.69229707  0.28185500    -0.01600
C899        C  0.24637828  0.78243550  0.39150553    -0.02700
C900        C  0.28282967  0.78545406  0.40287285     0.07000
C901        C  0.30895525  0.77327604  0.38972655    -0.02800
C902        C  0.29609261  0.75374344  0.36623133    -0.02800
C903        C  0.25727716  0.74663750  0.35607870     0.07100
C904        C  0.23382923  0.76331937  0.36789711    -0.03000
Br905      Br  0.18165579  0.75495559  0.35296798    -0.01600
Br906      Br  0.21215996  0.80177697  0.40906501    -0.01600
Br907      Br  0.32864316  0.73206038  0.34913211    -0.01600
Br908      Br  0.36168193  0.78264921  0.40408664    -0.01600
C909        C  0.11493649  0.57855883  0.36199518    -0.02700
C910        C  0.15972980  0.59858048  0.36290238     0.07000
C911        C  0.17934581  0.59679467  0.38541878    -0.02800
C912        C  0.15563794  0.58370853  0.40794932    -0.02800
C913        C  0.11167188  0.56993710  0.40774499     0.07100
C914        C  0.09074347  0.56286294  0.38429261    -0.03000
Br915      Br  0.02937979  0.53116006  0.38190975    -0.01600
Br916      Br  0.08687471  0.57631280  0.33086519    -0.01600
Br917      Br  0.18265072  0.58202394  0.43873607    -0.01600
Br918      Br  0.23972412  0.61579341  0.38552562    -0.01600
C919        C  0.42991767  0.57850277  0.36890124    -0.02700
C920        C  0.46545675  0.60969538  0.35535123     0.07000
C921        C  0.50620625  0.62980483  0.36628417    -0.02800
C922        C  0.51086027  0.62105371  0.39126176    -0.02800
C923        C  0.47476864  0.59176034  0.40522195     0.07100
C924        C  0.43432716  0.57059502  0.39413548    -0.03000
Br925      Br  0.38511393  0.53241543  0.41387915    -0.01600
Br926      Br  0.37446004  0.55007113  0.35334409    -0.01600
Br927      Br  0.06264912  0.65067534  0.40566963    -0.01600
Br928      Br  0.55466644  0.67340470  0.34810243    -0.01600
C929        C  0.45857005  0.76247431  0.35077419    -0.02700
C930        C  0.43036174  0.71842824  0.35191314     0.07000
C931        C  0.40506045  0.70082745  0.37371613    -0.02800
C932        C  0.41619886  0.72391453  0.39630276    -0.02800
C933        C  0.45019902  0.76668710  0.39641791     0.07100
C934        C  0.46603309  0.78709482  0.37259239    -0.03000
Br935      Br  0.99156872  0.84616344  0.36847340    -0.01600
Br936      Br  0.96212096  0.78530054  0.31850457    -0.01600
Br937      Br  0.38326851  0.69595802  0.42614438    -0.01600
Br938      Br  0.35808626  0.64279412  0.37290592    -0.01600
C939        C  0.42878709  0.65310013  0.25631262    -0.02700
C940        C  0.46414413  0.66881414  0.27237171     0.07000
C941        C  0.50562101  0.68484045  0.26234842    -0.02800
C942        C  0.00354130  0.70486548  0.23845338    -0.02800
C943        C  0.47648776  0.66984748  0.22010837     0.07100
C944        C  0.43492349  0.65373385  0.23019331    -0.03000
Br945      Br  0.38593214  0.63041426  0.20851550    -0.01600
Br946      Br  0.37179891  0.62911938  0.27023878    -0.01600
Br947      Br  0.05235240  0.75417223  0.22410189    -0.01600
Br948      Br  0.02926874  0.75208213  0.28508154    -0.01600
C949        C  0.25573193  0.96065523  0.38524705    -0.02700
C950        C  0.26150983  0.94190829  0.36330110     0.07000
C951        C  0.29145347  0.92783943  0.36359604    -0.02800
C952        C  0.31052099  0.92698161  0.38650193    -0.02800
C953        C  0.29587961  0.93563069  0.40947541     0.07100
C954        C  0.27078910  0.95537339  0.40847609    -0.03000
Br955      Br  0.25772313  0.97598820  0.43880426    -0.01600
Br956      Br  0.22465266  0.99132337  0.38359947    -0.01600
Br957      Br  0.35600529  0.91362502  0.38558774    -0.01600
Br958      Br  0.30323722  0.90587064  0.33339301    -0.01600
C959        C  0.08957227  0.85245970  0.39339032    -0.02700
C960        C  0.09308013  0.89143881  0.40151471     0.07000
C961        C  0.10040376  0.92285900  0.38328884    -0.02800
C962        C  0.10922155  0.91756222  0.35821550    -0.02800
C963        C  0.11274953  0.88199048  0.35151598     0.07100
C964        C  0.09750625  0.84738002  0.36809469    -0.03000
Br965      Br  0.09292802  0.79503978  0.35609134    -0.01600
Br966      Br  0.07425455  0.80552879  0.41605415    -0.01600
Br967      Br  0.12385043  0.46510328  0.33470945    -0.01600
Br968      Br  0.10259172  0.97503913  0.39264393    -0.01600
C969        C  0.19127802  0.87226876  0.26412687    -0.02700
C970        C  0.20270230  0.91117059  0.27616212     0.07000
C971        C  0.21495083  0.94818748  0.26178216    -0.02800
C972        C  0.21710274  0.94664108  0.23540995    -0.02800
C973        C  0.20641660  0.90784305  0.22332594     0.07100
C974        C  0.19342122  0.87062984  0.23776382    -0.03000
Br975      Br  0.17667367  0.81699299  0.22142706    -0.01600
Br976      Br  0.17185240  0.82101092  0.28389296    -0.01600
Br977      Br  0.23616312  0.99818444  0.21597449    -0.01600
Br978      Br  0.22668490  0.00046330  0.27817577    -0.01600
C979        C  0.25523592  0.81144485  0.57211201    -0.02700
C980        C  0.28925051  0.84670210  0.55957985     0.07000
C981        C  0.32054817  0.88086637  0.57384209    -0.02800
C982        C  0.31901283  0.87875765  0.60025430    -0.02800
C983        C  0.28532182  0.84356995  0.61261380     0.07100
C984        C  0.25317935  0.81017601  0.59857665    -0.03000
Br985      Br  0.20616703  0.76292092  0.61578249    -0.01600
Br986      Br  0.21009101  0.76562549  0.55329795    -0.01600
Br987      Br  0.36436022  0.92310403  0.61966736    -0.01600
Br988      Br  0.36673601  0.93017381  0.55749870    -0.01600
C989        C  0.09241954  0.48692139  0.90219560    -0.02700
C990        C  0.12989965  0.51252780  0.88816086     0.07000
C991        C  0.16958251  0.53560999  0.90021362    -0.02800
C992        C  0.17171648  0.53383775  0.92644111    -0.02800
C993        C  0.13399420  0.50943067  0.94056308     0.07100
C994        C  0.09083471  0.97640662  0.92636518    -0.03000
Br995      Br  0.03986172  0.93770624  0.94481149    -0.01600
Br996      Br  0.03517200  0.94957602  0.88308117    -0.01600
Br997      Br  0.22652763  0.56306687  0.94287685    -0.01600
Br998      Br  0.22119402  0.56790451  0.88061144    -0.01600
C999        C  0.40756414  0.79141308  0.90101972    -0.02700
C1000       C  0.37046306  0.75519943  0.89181707     0.07000
C1001       C  0.33943551  0.72687082  0.90925285    -0.02800
C1002       C  0.34647160  0.73371374  0.93536440    -0.02800
C1003       C  0.38458944  0.76852236  0.94422756     0.07100
C1004       C  0.41535817  0.79676433  0.92696711    -0.03000
Br1005     Br  0.46959697  0.84166953  0.93888072    -0.01600
Br1006     Br  0.44700401  0.83597606  0.87854196    -0.01600
Br1007     Br  0.30579600  0.69331263  0.95912346    -0.01600
Br1008     Br  0.28825052  0.67744477  0.89783547    -0.01600
C1009       C  0.34938449  0.79760971  0.73057380    -0.02700
C1010       C  0.31041781  0.76414419  0.74038394     0.07000
C1011       C  0.27618089  0.74095587  0.72397310    -0.02800
C1012       C  0.27995375  0.75163037  0.69839772    -0.02800
C1013       C  0.31630805  0.78857883  0.68961944     0.07100
C1014       C  0.35239831  0.80894561  0.70503887    -0.03000
Br1015     Br  0.40359607  0.85688638  0.69158087    -0.01600
Br1016     Br  0.39829543  0.82979478  0.75161212    -0.01600
Br1017     Br  0.23168808  0.72181316  0.67642646    -0.01600
Br1018     Br  0.22177859  0.69963895  0.73743680    -0.01600
C1019       C  0.36096545  0.53172186  0.93237687    -0.02700
C1020       C  0.38765523  0.51683099  0.94176207     0.07000
C1021       C  0.41702071  0.01138105  0.92466462    -0.02800
C1022       C  0.40090707  0.50165216  0.89908887    -0.02800
C1023       C  0.37256057  0.51454916  0.88973809     0.07100
C1024       C  0.35344510  0.53060280  0.90634638    -0.03000
Br1025     Br  0.31912501  0.55327577  0.89318851    -0.01600
Br1026     Br  0.33718562  0.55630533  0.95492737    -0.01600
Br1027     Br  0.44834886  0.00661280  0.87529813    -0.01600
Br1028     Br  0.46454027  0.00523537  0.93591862    -0.01600
C1029       C  0.27583117  0.92381191  0.69883821    -0.02700
C1030       C  0.25929247  0.87959422  0.69903505     0.07000
C1031       C  0.24043863  0.85640584  0.72138846    -0.02800
C1032       C  0.24859509  0.87777322  0.74445512    -0.02800
C1033       C  0.27002612  0.92254369  0.74473006     0.07100
C1034       C  0.27785602  0.94479993  0.72146949    -0.03000
Br1035     Br  0.28962527  0.00289631  0.71942399    -0.01600
Br1036     Br  0.30035439  0.95639406  0.66850756    -0.01600
Br1037     Br  0.22861759  0.84573557  0.77537389    -0.01600
Br1038     Br  0.20604024  0.79506351  0.72035944    -0.01600
C1039       C  0.43848453  0.74741673  0.68807797    -0.02700
C1040       C  0.48296349  0.76506152  0.68881725     0.07000
C1041       C  0.50161047  0.76062034  0.71091775    -0.02800
C1042       C  0.47930563  0.75159278  0.73385891    -0.02800
C1043       C  0.43649499  0.74316573  0.73415452     0.07100
C1044       C  0.41478002  0.73440194  0.71065263    -0.03000
Br1045     Br  0.35309653  0.70115659  0.70812357    -0.01600
Br1046     Br  0.41021684  0.74258055  0.65661280    -0.01600
Br1047     Br  0.50794633  0.74890591  0.76377278    -0.01600
Br1048     Br  0.05686238  0.76847707  0.71030609    -0.01600
C1049       C  0.12501922  0.90227708  0.69950427    -0.02700
C1050       C  0.09441674  0.90606554  0.68521251     0.07000
C1051       C  0.07898239  0.93290434  0.69334170    -0.02800
C1052       C  0.09142676  0.95309870  0.71674576    -0.02800
C1053       C  0.11913358  0.94608830  0.73208205     0.07100
C1054       C  0.13616130  0.92098705  0.72332867    -0.03000
Br1055     Br  0.17268359  0.91032105  0.74451629    -0.01600
Br1056     Br  0.14878687  0.86834157  0.68702012    -0.01600
Br1057     Br  0.06632073  0.98607184  0.72895732    -0.01600
Br1058     Br  0.03647299  0.93734005  0.67382558    -0.01600
C1059       C  0.00145215  0.84979696  0.59501440    -0.02700
C1060       C  0.02671905  0.83477274  0.60619200     0.07000
C1061       C  0.04969552  0.82099360  0.59122724    -0.02800
C1062       C  0.04771522  0.82246477  0.56496800    -0.02800
C1063       C  0.02274190  0.83779416  0.55363150     0.07100
C1064       C  0.99876349  0.85049697  0.56866278    -0.03000
Br1065     Br  0.96078154  0.86669877  0.55318884    -0.01600
Br1066     Br  0.97132007  0.87002191  0.61586881    -0.01600
Br1067     Br  0.58615355  0.81199952  0.54426799    -0.01600
Br1068     Br  0.59151705  0.81002505  0.60650886    -0.01600
C1069       C  0.10522553  0.64361424  0.72054915    -0.02700
C1070       C  0.11017612  0.62765527  0.69728199     0.07000
C1071       C  0.13710304  0.61001296  0.69586114    -0.02800
C1072       C  0.15144958  0.60062505  0.71816964    -0.02800
C1073       C  0.13646004  0.60656314  0.74178472     0.07100
C1074       C  0.11578818  0.63076888  0.74291137    -0.03000
Br1075     Br  0.10359368  0.64796178  0.77485960    -0.01600
Br1076     Br  0.08079202  0.68041081  0.72165460    -0.01600
Br1077     Br  0.19102119  0.57948454  0.71552468    -0.01600
Br1078     Br  0.15212434  0.59597759  0.66378757    -0.01600
C1079       C  0.94173323  0.53018642  0.69975160    -0.02700
C1080       C  0.45937665  0.57127663  0.68517283     0.07000
C1081       C  0.45409594  0.60429637  0.69521861    -0.02800
C1082       C  0.43394392  0.59870397  0.71860793    -0.02800
C1083       C  0.42037740  0.56064583  0.73205572     0.07100
C1084       C  0.42143433  0.52601889  0.72073683    -0.03000
Br1085     Br  0.40072126  0.47294955  0.73877088    -0.01600
Br1086     Br  0.94514598  0.48341077  0.68483982    -0.01600
Br1087     Br  0.42535204  0.64293869  0.73239137    -0.01600
Br1088     Br  0.48043764  0.65904481  0.67853663    -0.01600
C1089       C  0.05719026  0.62441780  0.57030427    -0.02700
C1090       C  0.04400684  0.58425695  0.55923230     0.07000
C1091       C  0.03397824  0.54868677  0.57453210    -0.02800
C1092       C  0.03612127  0.55296569  0.60079585    -0.02800
C1093       C  0.04795612  0.59268902  0.61176492     0.07100
C1094       C  0.05875305  0.62846848  0.59659524    -0.03000
Br1095     Br  0.07323242  0.68231124  0.61203777    -0.01600
Br1096     Br  0.07368713  0.67414607  0.54964116    -0.01600
Br1097     Br  0.51787488  0.50365701  0.61994941    -0.01600
Br1098     Br  0.50721826  0.49321401  0.55775187    -0.01600
C1099       C  0.54376555  0.09634270  0.63837014     0.79400
N1100       N  0.57836643  0.11199139  0.65391470    -0.78900
C1101       C  0.57270713  0.11417429  0.67912703     0.81800
N1102       N  0.53297834  0.10026654  0.68809932    -0.78900
C1103       C  0.49906594  0.08549977  0.67294030     0.81900
N1104       N  0.50404516  0.08319218  0.64794394    -0.80600
C1105       C  0.53217048  0.33962098  0.63355720     0.79400
N1106       N  0.56211312  0.37531035  0.64547505    -0.78900
C1107       C  0.56606234  0.37407759  0.67069439     0.81800
N1108       N  0.54010351  0.33848903  0.68356677    -0.78900
C1109       C  0.51065668  0.30302820  0.67204297     0.81900
N1110       N  0.50633218  0.30338683  0.64679724    -0.80600
C1111       C  0.92791292  0.44568301  0.81238641     0.02300
C1112       C  0.97314430  0.46903188  0.81114181    -0.13900
C1113       C  0.49691603  0.44774433  0.81024969    -0.00200
C1114       C  0.97610355  0.40325140  0.81149534    -0.12400
C1115       C  0.93120548  0.37873538  0.81337060     0.02300
C1116       C  0.90751899  0.40052481  0.81390701    -0.11800
H1117       H  0.98933887  0.50321153  0.81055274     0.07900
H1118       H  0.99460005  0.38702440  0.81140814     0.05400
H1119       H  0.87266433  0.38201144  0.81519675     0.05200
O1120       O  0.78822168  0.03704090  0.80869272    -0.86200
O1121       O  0.86601382  0.09683533  0.78709936    -0.83200
C1122       C  0.88256700  0.11794631  0.80656528     0.97300
O1123       O  0.89538034  0.10188992  0.82307100    -0.83300
O1124       O  0.89640537  0.03465813  0.84903448    -0.85900
C1125       C  0.86396261  0.01070223  0.86242150     1.01800
O1126       O  0.82547318  0.48269538  0.85372632    -0.78700
O1127       O  0.76114030  0.46819579  0.81825475    -0.78900
C1128       C  0.75664451  0.00113522  0.81415206     1.01700
O1129       O  0.78008591  0.48058595  0.77162539    -0.86200
O1130       O  0.86258910  0.03358209  0.75667272    -0.83300
C1131       C  0.90236512  0.05628317  0.75681954     0.97300
O1132       O  0.92250768  0.07358724  0.77695546    -0.83300
O1133       O  0.92142023  0.00833824  0.80457655    -0.85900
C1134       C  0.90269522  0.46892661  0.81291390     1.01800
O1135       O  0.86370715  0.44958806  0.81981176    -0.78700
O1136       O  0.80639831  0.44113255  0.78296170    -0.78900
C1137       C  0.78691669  0.45073149  0.76694101     1.01700
Cr1138     Cr  0.82631480  0.03583895  0.78271815     1.93700
Cr1139     Cr  0.90451091  0.05212738  0.81288115     1.93200
Cr1140     Cr  0.81645656  0.46438367  0.81802636     1.39100
O1141       O  0.84984873  0.01787208  0.80487747    -1.23900
O1142       O  0.87065577  0.16715546  0.78684955    -0.86200
O1143       O  0.79576592  0.15268030  0.80781737    -0.83200
C1144       C  0.76421223  0.15586405  0.81477149     0.97300
O1145       O  0.76786845  0.19273252  0.81661448    -0.83300
O1146       O  0.83002471  0.23322562  0.85351686    -0.85900
C1147       C  0.86586157  0.24551196  0.86367835     1.01800
O1148       O  0.89947570  0.25655106  0.85070357    -0.78700
O1149       O  0.89785977  0.18838382  0.82371215    -0.78900
C1150       C  0.88467716  0.16023194  0.80664987     1.01700
O1151       O  0.87268799  0.22983497  0.75686749    -0.86200
O1152       O  0.79207250  0.20859772  0.77106972    -0.83300
C1153       C  0.80490053  0.24735733  0.76730568     0.97300
O1154       O  0.81950320  0.27219710  0.78562703    -0.83300
O1155       O  0.87199383  0.31044108  0.82462784    -0.85900
C1156       C  0.90917343  0.33063339  0.81502228     1.01800
O1157       O  0.92736338  0.31035235  0.80700270    -0.78700
O1158       O  0.92911753  0.24465512  0.77897787    -0.78900
C1159       C  0.91107926  0.23922322  0.75766700     1.01700
Cr1160     Cr  0.83385494  0.19200127  0.78239687     1.93700
Cr1161     Cr  0.82418378  0.25040512  0.81918468     1.93200
Cr1162     Cr  0.90986424  0.24888872  0.81457781     1.39100
O1163       O  0.85657455  0.23102981  0.80571984    -1.23900
O1164       O  0.72594139  0.08316623  0.80895811    -0.86200
O1165       O  0.71046011  0.00836024  0.78703779    -0.83200
C1166       C  0.71423178  0.99557662  0.80822244     0.97300
O1167       O  0.68190950  0.48064044  0.82472321    -0.83300
O1168       O  0.61275404  0.47836508  0.84810652    -0.85900
C1169       C  0.62780290  0.01120160  0.86011669     1.01800
O1170       O  0.64006561  0.04741581  0.85053232    -0.78700
O1171       O  0.68680128  0.11270800  0.81634509    -0.78900
C1172       C  0.72337885  0.11535063  0.81515780     1.01700
O1173       O  0.67940594  0.09513033  0.76992317    -0.86200
O1174       O  0.65080602  0.51134142  0.75597041    -0.83300
C1175       C  0.63295942  0.47152901  0.75692065     0.97300
O1176       O  0.63016341  0.45213652  0.77744489    -0.83300
O1177       O  0.56522795  0.45443517  0.80286209    -0.85900
C1178       C  0.54478160  0.47237958  0.81037837     1.01800
O1179       O  0.56573747  0.01086326  0.81893600    -0.78700
O1180       O  0.61373078  0.07027843  0.78214730    -0.78900
C1181       C  0.64301635  0.09029268  0.76610978     1.01700
Cr1182     Cr  0.68926092  0.04864246  0.78173192     1.93700
Cr1183     Cr  0.62427222  0.47024921  0.81260745     1.93200
Cr1184     Cr  0.62767386  0.05800755  0.81619882     1.39100
O1185       O  0.64637549  0.02529702  0.80311247    -1.23900
C1186       C  0.78672083  0.34119896  0.64012211     0.79400
N1187       N  0.77401161  0.36440808  0.65437000    -0.78900
C1188       C  0.77651730  0.36335050  0.67979080     0.81800
N1189       N  0.79237582  0.34057644  0.69032772    -0.78900
C1190       C  0.80414545  0.31711472  0.67654471     0.81900
N1191       N  0.80091462  0.31666426  0.65123442    -0.80600
C1192       C  0.69795721  0.41245500  0.30555887     0.79400
N1193       N  0.65770969  0.39683950  0.31509115    -0.78900
C1194       C  0.65178886  0.39533660  0.34024787     0.81800
N1195       N  0.68552645  0.41016645  0.35560265    -0.78900
C1196       C  0.72572938  0.42741944  0.34678096     0.81900
N1197       N  0.73227921  0.42825579  0.32143454    -0.80600
C1198       C  0.94519373  0.16409727  0.30082108     0.79400
N1199       N  0.94825946  0.13360370  0.31418761    -0.78900
C1200       C  0.93976303  0.12986319  0.33917233     0.81800
N1201       N  0.92985317  0.15683948  0.35049420    -0.78900
C1202       C  0.92698686  0.18738025  0.33786853     0.81900
N1203       N  0.93516107  0.19158371  0.31269381    -0.80600
C1204       C  0.59050934  0.27288957  0.47939100     0.02300
C1205       C  0.57076964  0.22823046  0.47838013    -0.13900
C1206       C  0.59474943  0.20702256  0.47968430    -0.00200
C1207       C  0.63978036  0.23172464  0.48113349    -0.12400
C1208       C  0.66108950  0.27685861  0.48172920     0.02300
C1209       C  0.63582424  0.29688565  0.48124680    -0.12100
H1210       H  0.53629053  0.20984020  0.47735381     0.07900
H1211       H  0.65843967  0.21554988  0.48196166     0.05400
H1212       H  0.65144490  0.33109006  0.48187967     0.05200
O1213       O  0.93860829  0.33358525  0.45128169    -0.86200
O1214       O  0.50008624  0.40915143  0.47084329    -0.83200
C1215       C  0.53506136  0.43997145  0.47793481     0.97300
O1216       O  0.56818456  0.43600753  0.47860082    -0.83300
O1217       O  0.54581330  0.37486325  0.51563393    -0.85900
C1218       C  0.52227623  0.33962279  0.52649893     1.01800
O1219       O  0.00135496  0.30557479  0.51444552    -0.78700
O1220       O  0.93466296  0.30779084  0.48848313    -0.78900
C1221       C  0.91916585  0.32118917  0.47184900     1.01700
O1222       O  0.99811369  0.32980293  0.42004016    -0.86200
O1223       O  0.55791935  0.41071291  0.43366207    -0.83300
C1224       C  0.58320723  0.39724425  0.42912502     0.97300
O1225       O  0.59472488  0.38347596  0.44738572    -0.83300
O1226       O  0.58092643  0.33224827  0.48773623    -0.85900
C1227       C  0.56407749  0.29468585  0.47930982     1.01800
O1228       O  0.52578728  0.27627660  0.47117599    -0.78700
O1229       O  0.95767972  0.27442044  0.44348328    -0.78900
C1230       C  0.96958465  0.29137703  0.42170300     1.01700
Cr1231     Cr  0.49991119  0.36982116  0.44566795     1.93700
Cr1232     Cr  0.56886973  0.37969785  0.48138718     1.93200
Cr1233     Cr  0.98232317  0.29465249  0.47862897     1.39100
O1234       O  0.51685127  0.34725648  0.46881900    -1.23900
O1235       O  0.50076996  0.47897631  0.47605635    -0.86200
O1236       O  0.94103061  0.49838978  0.45914951    -0.83200
C1237       C  0.92511877  0.49166515  0.48073222     0.97300
O1238       O  0.94360129  0.02119298  0.49505595    -0.83300
O1239       O  0.01360799  0.08920946  0.51821177    -0.85900
C1240       C  0.53761672  0.07947160  0.53091689     1.01800
O1241       O  0.55913404  0.06639975  0.51877525    -0.78700
O1242       O  0.56679609  0.01579310  0.48083069    -0.78900
C1243       C  0.53581526  0.48086430  0.48045417     1.01700
O1244       O  0.55150058  0.02539281  0.43456104    -0.86200
O1245       O  0.00131393  0.05778405  0.42496567    -0.83300
C1246       C  0.97869842  0.07484857  0.42779717     0.97300
O1247       O  0.96410263  0.07691164  0.44934579    -0.83300
O1248       O  0.53212944  0.13927160  0.47598885    -0.85900
C1249       C  0.57177324  0.15913603  0.48025487     1.01800
O1250       O  0.59125705  0.13892570  0.48560586    -0.78700
O1251       O  0.59577499  0.08961283  0.44683447    -0.78900
C1252       C  0.58395549  0.06091552  0.43031357     1.01700
Cr1253     Cr  0.49828112  0.01810658  0.45085241     1.93700
Cr1254     Cr  0.99064612  0.07975167  0.48337423     1.93200
Cr1255     Cr  0.57441204  0.07636757  0.48250291     1.39100
O1256       O  0.52117936  0.05890154  0.47329867    -1.23900
O1257       O  0.89138585  0.41833202  0.47768552    -0.86200
O1258       O  0.87430188  0.34226562  0.45451843    -0.83200
C1259       C  0.87998335  0.32527138  0.47344695     0.97300
O1260       O  0.85286765  0.31367004  0.49109517    -0.83300
O1261       O  0.78771741  0.31379277  0.51988241    -0.85900
C1262       C  0.79354248  0.34623038  0.53224255     1.01800
O1263       O  0.80006813  0.38019330  0.52163602    -0.78700
O1264       O  0.84943110  0.44445629  0.48696540    -0.78900
C1265       C  0.88700900  0.44931118  0.48462476     1.01700
O1266       O  0.84156974  0.42801427  0.44013488    -0.86200
O1267       O  0.81264913  0.34557759  0.42610866    -0.83300
C1268       C  0.79596204  0.30575891  0.42684729     0.97300
O1269       O  0.79364088  0.28586695  0.44717621    -0.83300
O1270       O  0.73107432  0.28465567  0.47776966    -0.85900
C1271       C  0.70945414  0.30263516  0.48276463     1.01800
O1272       O  0.72825901  0.34187917  0.48859390    -0.78700
O1273       O  0.77592768  0.40048523  0.45195094    -0.78900
C1274       C  0.80469592  0.42119243  0.43582500     1.01700
Cr1275     Cr  0.85197834  0.38168921  0.45168737     1.93700
Cr1276     Cr  0.79295185  0.30389924  0.48337967     1.93200
Cr1277     Cr  0.79010058  0.38945182  0.48652643     1.39100
O1278       O  0.81106755  0.35779598  0.47444853    -1.23900
C1279       C  0.70764171  0.16569981  0.30475212     0.79400
N1280       N  0.68355916  0.12936791  0.31865762    -0.78900
C1281       C  0.68470488  0.13156911  0.34429590     0.81800
N1282       N  0.70884890  0.16944932  0.35538168    -0.78900
C1283       C  0.73225520  0.20513378  0.34194151     0.81900
N1284       N  0.73190192  0.20366741  0.31654741    -0.80600
C1285       C  0.88830987  0.50394452  0.97043854     0.79400
N1286       N  0.92805348  0.03449818  0.98122747    -0.78900
C1287       C  0.93303379  0.02770085  0.00591455     0.81800
N1288       N  0.90234819  0.49636170  0.01927694    -0.78900
C1289       C  0.86577918  0.46698112  0.00891157     0.81900
N1290       N  0.85815397  0.47060490  0.98434062    -0.80600
C1291       C  0.89086914  0.26152252  0.97051191     0.79400
N1292       N  0.91557260  0.24569498  0.97937797    -0.78900
C1293       C  0.92456180  0.24901501  0.00416733     0.81800
N1294       N  0.90803084  0.26648546  0.01962298    -0.78900
C1295       C  0.88206001  0.28047156  0.01166191     0.81900
N1296       N  0.87320865  0.27803086  0.98669745    -0.80600
C1297       C  0.78399412  0.10984175  0.14571420     0.02300
C1298       C  0.76070875  0.06477206  0.14545052    -0.13900
C1299       C  0.78150236  0.04060180  0.14612038    -0.00200
C1300       C  0.82694809  0.06272107  0.14634613    -0.12400
C1301       C  0.85127640  0.10797211  0.14551877     0.02300
C1302       C  0.82907321  0.13091127  0.14554257    -0.11800
H1303       H  0.72614899  0.04836919  0.14558553     0.07900
H1304       H  0.84350626  0.04453936  0.14673862     0.05400
H1305       H  0.84698353  0.16543714  0.14549850     0.05200
O1306       O  0.56634775  0.26000331  0.11951002    -0.86200
O1307       O  0.58128056  0.19812063  0.13969322    -0.83200
C1308       C  0.57683702  0.16224882  0.14501653     0.97300
O1309       O  0.53931790  0.12998732  0.14721018    -0.83300
O1310       O  0.99186941  0.14710742  0.18482438    -0.85900
C1311       C  0.48143747  0.17143499  0.19415298     1.01800
O1312       O  0.47346833  0.19638341  0.18167598    -0.78700
O1313       O  0.54150050  0.26423876  0.15578637    -0.78900
C1314       C  0.57067417  0.28064929  0.13922513     1.01700
O1315       O  0.50679416  0.20066425  0.08781539    -0.86200
O1316       O  0.53049369  0.14216329  0.10096749    -0.83300
C1317       C  0.99233816  0.10908173  0.09849198     0.97300
O1318       O  0.96469877  0.10064426  0.11544609    -0.83300
O1319       O  0.91919906  0.11257260  0.15266927    -0.85900
C1320       C  0.89960856  0.13150835  0.14542406     1.01800
O1321       O  0.92049697  0.17029084  0.13862383    -0.78700
O1322       O  0.98457445  0.23440334  0.10941729    -0.78900
C1323       C  0.98944790  0.21928840  0.08874386     1.01700
Cr1324     Cr  0.54314903  0.19881065  0.11399189     1.93700
Cr1325     Cr  0.98050665  0.12646231  0.14965384     1.93200
Cr1326     Cr  0.98179332  0.21385931  0.14541416     1.39100
O1327       O  0.50137292  0.18038665  0.13643710    -1.23900
O1328       O  0.69276829  0.31517386  0.14161920    -0.86200
O1329       O  0.63326558  0.32968465  0.12006945    -0.83200
C1330       C  0.61130539  0.32279791  0.13964656     0.97300
O1331       O  0.62557641  0.35099811  0.15671548    -0.83300
O1332       O  0.69089284  0.41934937  0.18432160    -0.85900
C1333       C  0.71201668  0.40716671  0.19751880     1.01800
O1334       O  0.73608753  0.39501505  0.18759802    -0.78700
O1335       O  0.76010912  0.35489295  0.15128080    -0.78900
C1336       C  0.72702004  0.31823010  0.14914252     1.01700
O1337       O  0.75398461  0.37010773  0.10483830    -0.86200
O1338       O  0.69513367  0.39239747  0.09021181    -0.83300
C1339       C  0.66620167  0.40207215  0.09071888     0.97300
O1340       O  0.65280838  0.40751099  0.11194775    -0.83300
O1341       O  0.71935940  0.47284338  0.14038871    -0.85900
C1342       C  0.75731957  0.49269138  0.14890142     1.01800
O1343       O  0.77359397  0.47222627  0.15870130    -0.78700
O1344       O  0.79041908  0.43348049  0.12028998    -0.78900
C1345       C  0.78273009  0.40833090  0.10225007     1.01700
Cr1346     Cr  0.69519261  0.35451995  0.11602962     1.93700
Cr1347     Cr  0.67475434  0.41155076  0.14781837     1.93200
Cr1348     Cr  0.76135852  0.41229800  0.15350465     1.39100
O1349       O  0.71054856  0.39352438  0.13933663    -1.23900
O1350       O  0.63406598  0.17215782  0.12025866    -0.86200
O1351       O  0.69264537  0.24574017  0.14380364    -0.83200
C1352       C  0.72724681  0.27780484  0.14995374     0.97300
O1353       O  0.76110994  0.27505294  0.15120501    -0.83300
O1354       O  0.74261498  0.21026169  0.18615178    -0.85900
C1355       C  0.71718964  0.17462623  0.19613766     1.01800
O1356       O  0.69477854  0.14162333  0.18302787    -0.78700
O1357       O  0.63069169  0.14380708  0.15639739    -0.78900
C1358       C  0.61498849  0.15806726  0.14074354     1.01700
O1359       O  0.69918711  0.17830554  0.08956032    -0.86200
O1360       O  0.75324075  0.25832093  0.10471575    -0.83300
C1361       C  0.78404513  0.25210901  0.10067473     0.97300
O1362       O  0.79203976  0.23161466  0.11689706    -0.83300
O1363       O  0.77944068  0.17281907  0.15406204    -0.85900
C1364       C  0.76086931  0.13457891  0.14627594     1.01800
O1365       O  0.72253219  0.11667126  0.13911278    -0.78700
O1366       O  0.66058538  0.11734557  0.10989270    -0.78900
C1367       C  0.67800259  0.13850911  0.08972456     1.01700
Cr1368     Cr  0.69596541  0.21206394  0.11642169     1.93700
Cr1369     Cr  0.76521928  0.22015477  0.15123870     1.93200
Cr1370     Cr  0.67932383  0.13377422  0.14643658     1.39100
O1371       O  0.71387839  0.18793514  0.13817894    -1.23900
C1372       C  0.64018688  0.50203886  0.96747313     0.79400
N1373       N  0.65343355  0.04123070  0.97918488    -0.78900
C1374       C  0.65677930  0.04167295  0.00448433     0.81800
N1375       N  0.64722537  0.50425706  0.01776881    -0.78900
C1376       C  0.63260214  0.46686424  0.00585707     0.81900
N1377       N  0.62937789  0.46544531  0.98044227    -0.80600
C1378       C  0.64672094  0.09852630  0.02337985    -0.02700
C1379       C  0.67252545  0.08011547  0.01955936     0.07000
C1380       C  0.70511311  0.08792786  0.03662168    -0.02800
C1381       C  0.70627296  0.10645142  0.05981895    -0.02800
C1382       C  0.67523852  0.11788432  0.06568111     0.07100
C1383       C  0.64872555  0.11841675  0.04643288    -0.03000
Br1384     Br  0.61710211  0.14796572  0.05106325    -0.01600
Br1385     Br  0.60825644  0.09512072  0.99743150    -0.01600
Br1386     Br  0.75175578  0.11798722  0.08273644    -0.01600
Br1387     Br  0.74605656  0.07005503  0.02857419    -0.01600
C1388       C  0.60002413  0.42309018  0.04324424    -0.02700
C1389       C  0.62527950  0.43061940  0.02157203     0.07000
C1390       C  0.65522985  0.41676331  0.02076372    -0.02800
C1391       C  0.66474711  0.40194305  0.04284215    -0.02800
C1392       C  0.64723865  0.40520853  0.06636972     0.07100
C1393       C  0.61116339  0.41110071  0.06582569    -0.03000
Br1394     Br  0.57540936  0.40201786  0.09502014    -0.01600
Br1395     Br  0.55322230  0.43458735  0.04213207    -0.01600
Br1396     Br  0.69965481  0.37538452  0.03927606    -0.01600
Br1397     Br  0.68699610  0.42313460  0.99015340    -0.01600
C1398       C  0.81354889  0.27117196  0.03087562    -0.02700
C1399       C  0.85820556  0.28834719  0.03190256     0.07000
C1400       C  0.87861794  0.30177347  0.05546425    -0.02800
C1401       C  0.85464112  0.28853996  0.07787014    -0.02800
C1402       C  0.80972032  0.26818821  0.07705056     0.07100
C1403       C  0.78980641  0.26371488  0.05337804    -0.03000
Br1404     Br  0.73017297  0.24690624  0.05079810    -0.01600
Br1405     Br  0.78375023  0.25485206  0.99922318    -0.01600
Br1406     Br  0.88399491  0.30076372  0.10962670    -0.01600
Br1407     Br  0.94000504  0.33795189  0.05699566    -0.01600
C1408       C  0.91535185  0.19863346  0.03568293    -0.02700
C1409       C  0.94271675  0.22603428  0.01682838     0.07000
C1410       C  0.98697778  0.24805815  0.02081033    -0.02800
C1411       C  0.00289152  0.24717568  0.04476152    -0.02800
C1412       C  0.97400096  0.22651879  0.06490076     0.07100
C1413       C  0.92988592  0.20431848  0.06037992    -0.03000
Br1414     Br  0.88905000  0.18634500  0.08764358    -0.01600
Br1415     Br  0.85553703  0.16219535  0.02847961    -0.01600
Br1416     Br  0.56714407  0.28857386  0.05473285    -0.01600
Br1417     Br  0.02455723  0.28164648  0.99387606    -0.01600
C1418       C  0.84028230  0.41251327  0.04177661    -0.02700
C1419       C  0.83271102  0.44048615  0.02719448     0.07000
C1420       C  0.80944526  0.45859420  0.03768736    -0.02800
C1421       C  0.79677518  0.45142982  0.06308292    -0.02800
C1422       C  0.80387381  0.42293204  0.07753725     0.07100
C1423       C  0.82594530  0.40385451  0.06687050    -0.03000
Br1424     Br  0.84265657  0.37209202  0.08819836    -0.01600
Br1425     Br  0.87527748  0.39087646  0.02796991    -0.01600
Br1426     Br  0.77255121  0.48319330  0.07825204    -0.01600
Br1427     Br  0.79924535  0.49726060  0.01789711    -0.01600
C1428       C  0.98842950  0.04921620  0.03856180    -0.02700
C1429       C  0.96406520  0.06051602  0.02283329     0.07000
C1430       C  0.95050205  0.08813104  0.03241105    -0.02800
C1431       C  0.95353998  0.09674476  0.05822621    -0.02800
C1432       C  0.98068908  0.08898507  0.07333028     0.07100
C1433       C  0.99923406  0.06593363  0.06317075    -0.03000
Br1434     Br  0.53599328  0.05714461  0.08369901    -0.01600
Br1435     Br  0.99989852  0.00483950  0.02806257    -0.01600
Br1436     Br  0.91229412  0.10828686  0.07370716    -0.01600
Br1437     Br  0.91969099  0.10679738  0.01131938    -0.01600
C1438       C  0.72577904  0.14475932  0.26350430    -0.02700
C1439       C  0.70713845  0.16508503  0.27691830     0.07000
C1440       C  0.69253900  0.18919236  0.26372412    -0.02800
C1441       C  0.69620801  0.19257504  0.23733846    -0.02800
C1442       C  0.71373957  0.17128934  0.22388678     0.07100
C1443       C  0.72888269  0.14767070  0.23704934    -0.03000
Br1444     Br  0.75720921  0.12240158  0.21894009    -0.01600
Br1445     Br  0.75042076  0.11612083  0.28154855    -0.01600
Br1446     Br  0.67788771  0.22697649  0.21950961    -0.01600
Br1447     Br  0.66747927  0.21774531  0.28179775    -0.01600
C1448       C  0.74382661  0.27848322  0.39223992    -0.02700
C1449       C  0.78155671  0.28354215  0.40298815     0.07000
C1450       C  0.80866928  0.27348842  0.38910543    -0.02800
C1451       C  0.79551056  0.25353016  0.36570545    -0.02800
C1452       C  0.75560824  0.24422325  0.35621709     0.07100
C1453       C  0.73110159  0.25916856  0.36865494    -0.03000
Br1454     Br  0.67797334  0.24908963  0.35429591    -0.01600
Br1455     Br  0.70857282  0.29588752  0.41041712    -0.01600
Br1456     Br  0.82981637  0.23513380  0.34752902    -0.01600
Br1457     Br  0.86347819  0.28688687  0.40220859    -0.01600
C1458       C  0.61230367  0.07897221  0.36053246    -0.02700
C1459       C  0.65683637  0.09628918  0.36149814     0.07000
C1460       C  0.67520795  0.09235262  0.38400206    -0.02800
C1461       C  0.65110104  0.07955112  0.40643189    -0.02800
C1462       C  0.60779817  0.06838262  0.40622369     0.07100
C1463       C  0.58756039  0.06360003  0.38270738    -0.03000
Br1464     Br  0.52635016  0.03537163  0.37998755    -0.01600
Br1465     Br  0.58565211  0.08028543  0.32950881    -0.01600
Br1466     Br  0.67649765  0.07474294  0.43714168    -0.01600
Br1467     Br  0.73459911  0.10788762  0.38429449    -0.01600
C1468       C  0.91621169  0.07638863  0.37233041    -0.02700
C1469       C  0.94954158  0.10449934  0.35615894     0.07000
C1470       C  0.99229105  0.12312193  0.36397580    -0.02800
C1471       C  0.00141473  0.11615812  0.38845287    -0.02800
C1472       C  0.96791742  0.08924345  0.40486033     0.07100
C1473       C  0.92531241  0.06948341  0.39687739    -0.03000
Br1474     Br  0.87961060  0.03486480  0.41991349    -0.01600
Br1475     Br  0.85778098  0.05057178  0.36129057    -0.01600
Br1476     Br  0.56352909  0.15296567  0.40955678    -0.01600
Br1477     Br  0.03808326  0.16264004  0.34230014    -0.01600
C1478       C  0.95106438  0.26197817  0.35195562    -0.02700
C1479       C  0.92200775  0.21815277  0.35379930     0.07000
C1480       C  0.89897394  0.20197022  0.37645986    -0.02800
C1481       C  0.91380665  0.22520517  0.39883340    -0.02800
C1482       C  0.94902606  0.26742268  0.39803434     0.07100
C1483       C  0.96282123  0.28716094  0.37384847    -0.03000
Br1484     Br  0.49104273  0.35102737  0.37023217    -0.01600
Br1485     Br  0.48654139  0.29286946  0.32118827    -0.01600
Br1486     Br  0.88399116  0.19781976  0.42966414    -0.01600
Br1487     Br  0.84916844  0.14564031  0.37680209    -0.01600
C1488       C  0.92150672  0.14125929  0.25708722    -0.02700
C1489       C  0.95411971  0.16773464  0.27367906     0.07000
C1490       C  0.99577956  0.19511253  0.26448444    -0.02800
C1491       C  0.50966405  0.17956124  0.23770334    -0.02800
C1492       C  0.97218812  0.16939132  0.22199023     0.07100
C1493       C  0.93058225  0.14175096  0.23133222    -0.03000
Br1494     Br  0.88579289  0.10394078  0.20909739    -0.01600
Br1495     Br  0.86419386  0.10470827  0.26974628    -0.01600
Br1496     Br  0.56451559  0.19275320  0.22401153    -0.01600
Br1497     Br  0.55223740  0.19718842  0.28557670    -0.01600
C1498       C  0.75350579  0.45971356  0.38855970    -0.02700
C1499       C  0.75968935  0.44229634  0.36608892     0.07000
C1500       C  0.79046602  0.42921330  0.36573457    -0.02800
C1501       C  0.80976805  0.42765341  0.38837654    -0.02800
C1502       C  0.79513138  0.43518132  0.41165532     0.07100
C1503       C  0.76943317  0.45427592  0.41143361    -0.03000
Br1504     Br  0.75694988  0.47399467  0.44236723    -0.01600
Br1505     Br  0.72160439  0.48965131  0.38819378    -0.01600
Br1506     Br  0.85540134  0.41446530  0.38676552    -0.01600
Br1507     Br  0.80371160  0.40987909  0.33496568    -0.01600
C1508       C  0.58998727  0.35344433  0.39430634    -0.02700
C1509       C  0.59297187  0.39211363  0.40262521     0.07000
C1510       C  0.59852766  0.42300699  0.38444714    -0.02800
C1511       C  0.60597498  0.41755898  0.35915706    -0.02800
C1512       C  0.61093193  0.38295990  0.35228453     0.07100
C1513       C  0.59685858  0.34841440  0.36881713    -0.03000
Br1514     Br  0.59368350  0.29685687  0.35652178    -0.01600
Br1515     Br  0.57716240  0.30703736  0.41689595    -0.01600
Br1516     Br  0.62086152  0.96251392  0.33300852    -0.01600
Br1517     Br  0.60014127  0.47471619  0.39405223    -0.01600
C1518       C  0.68136871  0.37187446  0.26518884    -0.02700
C1519       C  0.70345667  0.41115799  0.27804179     0.07000
C1520       C  0.72786078  0.44916190  0.26425870    -0.02800
C1521       C  0.73095744  0.44776582  0.23789312    -0.02800
C1522       C  0.70930625  0.40846410  0.22516940     0.07100
C1523       C  0.68433047  0.37062866  0.23883859    -0.03000
Br1524     Br  0.65265117  0.31736591  0.22119090    -0.01600
Br1525     Br  0.64690244  0.31942387  0.28354159    -0.01600
Br1526     Br  0.76463920  0.49983218  0.21913954    -0.01600
Br1527     Br  0.75419755  0.50346106  0.28120604    -0.01600
C1528       C  0.75643862  0.31075485  0.57253322    -0.02700
C1529       C  0.79182539  0.34448331  0.55994660     0.07000
C1530       C  0.82434662  0.37799881  0.57396404    -0.02800
C1531       C  0.82201444  0.37719473  0.60030991    -0.02800
C1532       C  0.78687467  0.34356952  0.61269476     0.07100
C1533       C  0.75390450  0.31061065  0.59891299    -0.03000
Br1534     Br  0.70495283  0.26586064  0.61635689    -0.01600
Br1535     Br  0.71023148  0.26564760  0.55393097    -0.01600
Br1536     Br  0.86773683  0.42138870  0.61964543    -0.01600
Br1537     Br  0.87323487  0.42439637  0.55738387    -0.01600
C1538       C  0.59339728  0.98464411  0.90188411    -0.02700
C1539       C  0.63069064  0.00773612  0.88724930     0.07000
C1540       C  0.67121398  0.02747447  0.89848508    -0.02800
C1541       C  0.67449600  0.02545049  0.92459170    -0.02800
C1542       C  0.63716690  0.00360435  0.93932227     0.07100
C1543       C  0.59673368  0.47767575  0.92852216    -0.03000
Br1544     Br  0.54670773  0.44039991  0.94828547    -0.01600
Br1545     Br  0.53737820  0.45207777  0.88701760    -0.01600
Br1546     Br  0.72999330  0.05166130  0.94016545    -0.01600
Br1547     Br  0.72208191  0.05551902  0.87784541    -0.01600
C1548       C  0.89927048  0.28951737  0.90174774    -0.02700
C1549       C  0.86970092  0.24979872  0.89124662     0.07000
C1550       C  0.84489727  0.21468509  0.90716217    -0.02800
C1551       C  0.85119818  0.21872510  0.93330839    -0.02800
C1552       C  0.88137227  0.25815498  0.94358483     0.07100
C1553       C  0.90487263  0.29362490  0.92787585    -0.03000
Br1554     Br  0.94581941  0.34750822  0.94223905    -0.01600
Br1555     Br  0.93153285  0.33893928  0.88056379    -0.01600
Br1556     Br  0.81926980  0.17021721  0.95516641    -0.01600
Br1557     Br  0.80382254  0.16064789  0.89320525    -0.01600
C1558       C  0.84668830  0.29568547  0.73124566    -0.02700
C1559       C  0.80755308  0.26294813  0.74132413     0.07000
C1560       C  0.77233139  0.24117093  0.72539021    -0.02800
C1561       C  0.77569741  0.25192462  0.69984663    -0.02800
C1562       C  0.81265637  0.28800297  0.69081600     0.07100
C1563       C  0.84918306  0.30761947  0.70589952    -0.03000
Br1564     Br  0.90050611  0.35540966  0.69237723    -0.01600
Br1565     Br  0.89661010  0.32633564  0.75173043    -0.01600
Br1566     Br  0.72686749  0.22309773  0.67816628    -0.01600
Br1567     Br  0.71753922  0.20279428  0.73965568    -0.01600
C1568       C  0.86441311  0.03206976  0.93251091    -0.02700
C1569       C  0.88539368  0.01097162  0.94205847     0.07000
C1570       C  0.89003254  0.47997571  0.92673662    -0.02800
C1571       C  0.89118796  0.98909105  0.89944676    -0.02800
C1572       C  0.86992775  0.00987858  0.88988939     0.07100
C1573       C  0.85682844  0.03161340  0.90646485    -0.03000
Br1574     Br  0.82938878  0.06144551  0.89322989    -0.01600
Br1575     Br  0.84652729  0.06200323  0.95500403    -0.01600
Br1576     Br  0.89339870  0.44411637  0.87865497    -0.01600
Br1577     Br  0.91250376  0.44536590  0.93981127    -0.01600
C1578       C  0.78248951  0.42990683  0.69712701    -0.02700
C1579       C  0.76255361  0.38528027  0.69734857     0.07000
C1580       C  0.74098918  0.36253439  0.71930782    -0.02800
C1581       C  0.74892594  0.38387722  0.74228322    -0.02800
C1582       C  0.77330918  0.42851082  0.74267212     0.07100
C1583       C  0.78470636  0.45138880  0.71954786    -0.03000
Br1584     Br  0.80205285  0.51106110  0.71745935    -0.01600
Br1585     Br  0.81191534  0.46193550  0.66739904    -0.01600
Br1586     Br  0.72508130  0.35223622  0.77301257    -0.01600
Br1587     Br  0.70421375  0.30146699  0.71819202    -0.01600
C1588       C  0.93681267  0.25003353  0.68775061    -0.02700
C1589       C  0.98086722  0.26496927  0.68860340     0.07000
C1590       C  0.99839036  0.25803709  0.71038420    -0.02800
C1591       C  0.97589164  0.24867252  0.73321792    -0.02800
C1592       C  0.93359559  0.24172450  0.73355024     0.07100
C1593       C  0.91249432  0.23567847  0.71001535    -0.03000
Br1594     Br  0.85082644  0.20483719  0.70680444    -0.01600
Br1595     Br  0.91020886  0.25223311  0.65687171    -0.01600
Br1596     Br  0.00357555  0.24347420  0.76290906    -0.01600
Br1597     Br  0.55905842  0.27269397  0.70884702    -0.01600
C1598       C  0.62622585  0.40876863  0.69918480    -0.02700
C1599       C  0.59381267  0.41089322  0.68581146     0.07000
C1600       C  0.57573205  0.43468367  0.69534397    -0.02800
C1601       C  0.58737585  0.45323032  0.71919436    -0.02800
C1602       C  0.61793697  0.44880234  0.73318848     0.07100
C1603       C  0.63784275  0.42730483  0.72301553    -0.03000
Br1604     Br  0.67935848  0.42168837  0.74237978    -0.01600
Br1605     Br  0.65128418  0.37647950  0.68586076    -0.01600
Br1606     Br  0.55773124  0.48015230  0.73392370    -0.01600
Br1607     Br  0.53062226  0.43655443  0.67716162    -0.01600
C1608       C  0.50541147  0.35607125  0.59464635    -0.02700
C1609       C  0.52891599  0.33944584  0.60627726     0.07000
C1610       C  0.54885997  0.32164998  0.59189012    -0.02800
C1611       C  0.54573958  0.32082638  0.56567238    -0.02800
C1612       C  0.52272030  0.33793797  0.55391485     0.07100
C1613       C  0.50192852  0.35490148  0.56835739    -0.03000
Br1614     Br  0.46726526  0.37457474  0.55211875    -0.01600
Br1615     Br  0.47799623  0.38011839  0.61473976    -0.01600
Br1616     Br  0.07433948  0.29500166  0.54505322    -0.01600
Br1617     Br  0.08253212  0.29564369  0.60726050    -0.01600
C1618       C  0.60024668  0.14100964  0.72166077    -0.02700
C1619       C  0.60640726  0.12602591  0.69827394     0.07000
C1620       C  0.63535914  0.11068164  0.69689504    -0.02800
C1621       C  0.65102840  0.10284345  0.71923425    -0.02800
C1622       C  0.63511679  0.10745579  0.74286307     0.07100
C1623       C  0.61216598  0.12940463  0.74400407    -0.03000
Br1624     Br  0.59904279  0.14566605  0.77601808    -0.01600
Br1625     Br  0.57390981  0.17617339  0.72313341    -0.01600
Br1626     Br  0.69419086  0.08622245  0.71667061    -0.01600
Br1627     Br  0.65233869  0.09843228  0.66492021    -0.01600
C1628       C  0.43665971  0.03153669  0.69547919    -0.02700
C1629       C  0.96176305  0.07094687  0.68541497     0.07000
C1630       C  0.95494078  0.10351412  0.69460403    -0.02800
C1631       C  0.93547775  0.09885304  0.71818976    -0.02800
C1632       C  0.92400422  0.06217869  0.73267435     0.07100
C1633       C  0.92593098  0.02753598  0.72207090    -0.03000
Br1634     Br  0.90499943  0.97499093  0.74069006    -0.01600
Br1635     Br  0.43888237  0.98547641  0.67870731    -0.01600
Br1636     Br  0.92381491  0.14190216  0.73051570    -0.01600
Br1637     Br  0.97721741  0.15627317  0.67605727    -0.01600
C1638       C  0.55691244  0.12489705  0.56954856    -0.02700
C1639       C  0.54221494  0.08443678  0.55845660     0.07000
C1640       C  0.53039327  0.04853216  0.57383098    -0.02800
C1641       C  0.53380407  0.05305436  0.60009597    -0.02800
C1642       C  0.54818059  0.09330965  0.61110979     0.07100
C1643       C  0.55953294  0.12917210  0.59586340    -0.03000
Br1644     Br  0.57549762  0.18339810  0.61129856    -0.01600
Br1645     Br  0.57281452  0.17454975  0.54892567    -0.01600
Br1646     Br  0.02143921  0.00468422  0.61923071    -0.01600
Br1647     Br  0.01193542  0.99371217  0.55699316    -0.01600
C1648       C  0.54333121  0.59563937  0.63749595     0.79400
N1649       N  0.57837352  0.61088019  0.65264720    -0.78900
C1650       C  0.57337655  0.61268638  0.67794576     0.81800
N1651       N  0.53399508  0.59887199  0.68738183    -0.78900
C1652       C  0.49970617  0.58435424  0.67259189     0.81900
N1653       N  0.50390527  0.58240235  0.64751191    -0.80600
C1654       C  0.53160449  0.83681053  0.63319212     0.79400
N1655       N  0.56132302  0.87281843  0.64497641    -0.78900
C1656       C  0.56562737  0.87214556  0.67020863     0.81800
N1657       N  0.54031254  0.83650957  0.68328082    -0.78900
C1658       C  0.51097933  0.80061322  0.67197996     0.81900
N1659       N  0.50621419  0.80061398  0.64667960    -0.80600
C1660       C  0.92805558  0.94586772  0.81081607     0.02300
C1661       C  0.97321022  0.96871543  0.80896898    -0.13900
C1662       C  0.49790158  0.94868468  0.81020825    -0.00200
C1663       C  0.97533862  0.90251697  0.80971848    -0.12400
C1664       C  0.93050257  0.87848025  0.81218266     0.02300
C1665       C  0.90725675  0.90072775  0.81283612    -0.11800
H1666       H  0.98971479  0.00287340  0.80808181     0.07900
H1667       H  0.99356598  0.88600319  0.80962049     0.05400
H1668       H  0.87243154  0.88259437  0.81462514     0.05200
O1669       O  0.78738242  0.53647972  0.81056052    -0.86200
O1670       O  0.86570691  0.59651008  0.78903618    -0.83200
C1671       C  0.88165401  0.61744231  0.80860603     0.97300
O1672       O  0.89382948  0.60106223  0.82527312    -0.83300
O1673       O  0.89375540  0.53299179  0.85105090    -0.85900
C1674       C  0.86118562  0.50724331  0.86380186     1.01800
O1675       O  0.82763489  0.98656527  0.85281889    -0.78700
O1676       O  0.76215293  0.96916672  0.81728354    -0.78900
C1677       C  0.75575038  0.50039109  0.81575221     1.01700
O1678       O  0.78091446  0.98000965  0.77033765    -0.86200
O1679       O  0.86213741  0.53362178  0.75856697    -0.83300
C1680       C  0.90197365  0.55566117  0.75898921     0.97300
O1681       O  0.92191550  0.57288886  0.77921623    -0.83300
O1682       O  0.92091295  0.50806220  0.80697322    -0.85900
C1683       C  0.90338530  0.96964164  0.81150384     1.01800
O1684       O  0.86503025  0.95121333  0.81956317    -0.78700
O1685       O  0.80663487  0.94047277  0.78273981    -0.78900
C1686       C  0.78716591  0.94953707  0.76637119     1.01700
Cr1687     Cr  0.82567189  0.53575148  0.78449613     1.93700
Cr1688     Cr  0.90318203  0.55129569  0.81506476     1.93200
Cr1689     Cr  0.81767282  0.96582349  0.81740166     1.39100
O1690       O  0.84879622  0.51708805  0.80649855    -1.23900
O1691       O  0.87014398  0.66648193  0.78842413    -0.86200
O1692       O  0.79499099  0.65236548  0.80899970    -0.83200
C1693       C  0.76315231  0.65556581  0.81527933     0.97300
O1694       O  0.76682367  0.69249176  0.81681521    -0.83300
O1695       O  0.82902961  0.73453800  0.85393344    -0.85900
C1696       C  0.86485783  0.74683711  0.86419347     1.01800
O1697       O  0.89852397  0.75762831  0.85133512    -0.78700
O1698       O  0.89678650  0.68830780  0.82530566    -0.78900
C1699       C  0.88380863  0.65981022  0.80843795     1.01700
O1700       O  0.87212873  0.72805086  0.75747844    -0.86200
O1701       O  0.79134969  0.70684776  0.77131961    -0.83300
C1702       C  0.80416010  0.74540717  0.76691989     0.97300
O1703       O  0.81867105  0.77094477  0.78495612    -0.83300
O1704       O  0.87092249  0.81063368  0.82386125    -0.85900
C1705       C  0.90822547  0.83043654  0.81438763     1.01800
O1706       O  0.92643614  0.80984214  0.80698411    -0.78700
O1707       O  0.92833352  0.74351347  0.77997189    -0.78900
C1708       C  0.91066281  0.73793501  0.75852452     1.01700
Cr1709     Cr  0.83319449  0.69090227  0.78329721     1.93700
Cr1710     Cr  0.82317997  0.75037201  0.81906315     1.93200
Cr1711     Cr  0.90889841  0.74867722  0.81537247     1.39100
O1712       O  0.85568142  0.73059960  0.80626513    -1.23900
O1713       O  0.72512390  0.58292965  0.80906635    -0.86200
O1714       O  0.70951373  0.50711285  0.78848313    -0.83200
C1715       C  0.71338515  0.49498476  0.80984813     0.97300
O1716       O  0.68260545  0.98055523  0.82298446    -0.83300
O1717       O  0.61385460  0.97787961  0.84697430    -0.85900
C1718       C  0.62630630  0.51195602  0.86093014     1.01800
O1719       O  0.63827960  0.54787075  0.85092292    -0.78700
O1720       O  0.68555713  0.61221687  0.81605073    -0.78900
C1721       C  0.72224587  0.61501017  0.81514018     1.01700
O1722       O  0.67821826  0.59293514  0.76951397    -0.86200
O1723       O  0.65238483  0.01415730  0.75467120    -0.83300
C1724       C  0.63443993  0.97426098  0.75514507     0.97300
O1725       O  0.63089763  0.95416470  0.77554120    -0.83300
O1726       O  0.56606316  0.95564960  0.80174902    -0.85900
C1727       C  0.54578428  0.97333686  0.80999406     1.01800
O1728       O  0.56451690  0.51023564  0.81885053    -0.78700
O1729       O  0.61259012  0.56855225  0.78164127    -0.78900
C1730       C  0.64176883  0.58775009  0.76541639     1.01700
Cr1731     Cr  0.68811815  0.54703803  0.78236853     1.93700
Cr1732     Cr  0.62509435  0.97086217  0.81115614     1.93200
Cr1733     Cr  0.62638280  0.55742792  0.81612798     1.39100
O1734       O  0.64539518  0.52443731  0.80387251    -1.23900
C1735       C  0.78461265  0.83817407  0.63972977     0.79400
N1736       N  0.77085372  0.86021400  0.65430317    -0.78900
C1737       C  0.77201526  0.85764554  0.67976283     0.81800
N1738       N  0.78767577  0.83449367  0.69003316    -0.78900
C1739       C  0.80077209  0.81237186  0.67596660     0.81900
N1740       N  0.79890628  0.81349779  0.65059682    -0.80600
C1741       C  0.70012143  0.91503770  0.30378152     0.79400
N1742       N  0.65991574  0.89864764  0.31354695    -0.78900
C1743       C  0.65449084  0.89699772  0.33876300     0.81800
N1744       N  0.68850558  0.91202075  0.35383770    -0.78900
C1745       C  0.72854659  0.92978346  0.34476003     0.81900
N1746       N  0.73478703  0.93109210  0.31937881    -0.80600
C1747       C  0.94968150  0.66461903  0.30205966     0.79400
N1748       N  0.95477936  0.63611195  0.31625168    -0.78900
C1749       C  0.94527235  0.63253154  0.34107351     0.81800
N1750       N  0.93226048  0.65771559  0.35154222    -0.78900
C1751       C  0.92732437  0.68641509  0.33822839     0.81900
N1752       N  0.93666028  0.69057351  0.31313109    -0.80600
C1753       C  0.58969828  0.77293097  0.47822015     0.02300
C1754       C  0.57029337  0.72820599  0.47726765    -0.13900
C1755       C  0.59466626  0.70735837  0.47863682    -0.00200
C1756       C  0.63963537  0.73246346  0.48011424    -0.12400
C1757       C  0.66055513  0.77757110  0.48064634     0.02300
C1758       C  0.63499371  0.79724281  0.48004244    -0.12100
H1759       H  0.53583535  0.70949850  0.47623591     0.07900
H1760       H  0.65858006  0.71659614  0.48100882     0.05400
H1761       H  0.65038433  0.83143890  0.48061448     0.05200
O1762       O  0.93719569  0.83286054  0.45022361    -0.86200
O1763       O  0.49720362  0.90807462  0.46899543    -0.83200
C1764       C  0.53193755  0.93889221  0.47639751     0.97300
O1765       O  0.56528965  0.93528149  0.47719132    -0.83300
O1766       O  0.54489684  0.87477480  0.51453312    -0.85900
C1767       C  0.52158357  0.83966340  0.52560553     1.01800
O1768       O  0.99944299  0.80576993  0.51403602    -0.78700
O1769       O  0.93338192  0.80793636  0.48764256    -0.78900
C1770       C  0.91796913  0.82118502  0.47088317     1.01700
O1771       O  0.99651601  0.82839465  0.41922147    -0.86200
O1772       O  0.55526457  0.90996441  0.43178226    -0.83300
C1773       C  0.58123389  0.89722820  0.42746607     0.97300
O1774       O  0.59286765  0.88380869  0.44585031    -0.83300
O1775       O  0.58005730  0.83252341  0.48598197    -0.85900
C1776       C  0.56307844  0.79459232  0.47807001     1.01800
O1777       O  0.52457523  0.77575429  0.47030940    -0.78700
O1778       O  0.95633587  0.77351142  0.44306093    -0.78900
C1779       C  0.96804036  0.78996272  0.42114705     1.01700
Cr1780     Cr  0.49758949  0.86845181  0.44419562     1.93700
Cr1781     Cr  0.56721394  0.87961979  0.47994763     1.93200
Cr1782     Cr  0.98081928  0.79428612  0.47818896     1.39100
O1783       O  0.51522777  0.84667650  0.46755228    -1.23900
O1784       O  0.49728895  0.97792184  0.47537272    -0.86200
O1785       O  0.93991020  0.99839720  0.45723000    -0.83200
C1786       C  0.92442925  0.99241498  0.47890569     0.97300
O1787       O  0.94401214  0.51989888  0.49721463    -0.83300
O1788       O  0.01345815  0.58778568  0.52096823    -0.85900
C1789       C  0.53790818  0.58010051  0.53018312     1.01800
O1790       O  0.56045418  0.56778720  0.51852848    -0.78700
O1791       O  0.57013039  0.51717966  0.48165209    -0.78900
C1792       C  0.53240696  0.97961220  0.47939163     1.01700
O1793       O  0.55613717  0.52568471  0.43534351    -0.86200
O1794       O  0.00320128  0.55880413  0.42762024    -0.83300
C1795       C  0.98063765  0.57589247  0.43049817     0.97300
O1796       O  0.96501599  0.57681728  0.45192709    -0.83300
O1797       O  0.53283318  0.63892603  0.47465880    -0.85900
C1798       C  0.57234830  0.65943875  0.47928412     1.01800
O1799       O  0.59231498  0.63984803  0.48505171    -0.78700
O1800       O  0.59901009  0.59053719  0.44709852    -0.78900
C1801       C  0.58814068  0.56146030  0.43093282     1.01700
Cr1802     Cr  0.50195397  0.51778108  0.45058789     1.93700
Cr1803     Cr  0.99089603  0.57891294  0.48606484     1.93200
Cr1804     Cr  0.57672721  0.57751292  0.48252784     1.39100
O1805       O  0.52361986  0.55909479  0.47269410    -1.23900
O1806       O  0.89071967  0.91906331  0.47653717    -0.86200
O1807       O  0.87343564  0.84270959  0.45353830    -0.83200
C1808       C  0.87917067  0.82587231  0.47251721     0.97300
O1809       O  0.85238659  0.81486288  0.49030072    -0.83300
O1810       O  0.78766484  0.81543970  0.51916121    -0.85900
C1811       C  0.79268509  0.84761212  0.53148526     1.01800
O1812       O  0.79873528  0.88138883  0.52075991    -0.78700
O1813       O  0.84887917  0.94541753  0.48573508    -0.78900
C1814       C  0.88642534  0.95018724  0.48329302     1.01700
O1815       O  0.84133081  0.92871536  0.43888139    -0.86200
O1816       O  0.81152932  0.84584092  0.42528208    -0.83300
C1817       C  0.79467747  0.80600862  0.42625811     0.97300
O1818       O  0.79265784  0.78642836  0.44665302    -0.83300
O1819       O  0.73058885  0.78559304  0.47730878    -0.85900
C1820       C  0.70886631  0.80362760  0.48176442     1.01800
O1821       O  0.72750712  0.84305834  0.48713178    -0.78700
O1822       O  0.77566471  0.90152502  0.45046272    -0.78900
C1823       C  0.80459695  0.92200174  0.43435471     1.01700
Cr1824     Cr  0.85122868  0.88223177  0.45065257     1.93700
Cr1825     Cr  0.79246137  0.80502193  0.48273408     1.93200
Cr1826     Cr  0.78940744  0.89055650  0.48530005     1.39100
O1827       O  0.81043480  0.85875330  0.47351547    -1.23900
C1828       C  0.70921968  0.66476299  0.30487359     0.79400
N1829       N  0.68639500  0.62849465  0.31905185    -0.78900
C1830       C  0.68709490  0.63148077  0.34465922     0.81800
N1831       N  0.70944556  0.66996672  0.35537638    -0.78900
C1832       C  0.73166918  0.70549616  0.34163774     0.81900
N1833       N  0.73189181  0.70330563  0.31630166    -0.80600
C1834       C  0.89028522  0.00770470  0.96948716     0.79400
N1835       N  0.92440743  0.53514233  0.98177221    -0.78900
C1836       C  0.93142342  0.53047709  0.00642422     0.81800
N1837       N  0.90054242  0.99555435  0.01831621    -0.78900
C1838       C  0.86268551  0.97067754  0.00753864     0.81900
N1839       N  0.85693193  0.97670259  0.98300841    -0.80600
C1840       C  0.89715675  0.76580623  0.97068502     0.79400
N1841       N  0.92292581  0.75117943  0.97953533    -0.78900
C1842       C  0.93385304  0.75673391  0.00410969     0.81800
N1843       N  0.91790021  0.77484757  0.01945941    -0.78900
C1844       C  0.88983978  0.78632361  0.01184514     0.81900
N1845       N  0.87954565  0.78218349  0.98702349    -0.80600
C1846       C  0.78682823  0.61019465  0.14729136     0.02300
C1847       C  0.76318585  0.56519689  0.14700050    -0.13900
C1848       C  0.78349814  0.54064978  0.14800984    -0.00200
C1849       C  0.82892109  0.56222908  0.14873088    -0.12400
C1850       C  0.85368983  0.60741324  0.14798582     0.02300
C1851       C  0.83188854  0.63081458  0.14759207    -0.11800
H1852       H  0.72864161  0.54910777  0.14677167     0.07900
H1853       H  0.84511312  0.54370480  0.14932503     0.05400
H1854       H  0.85007933  0.66533082  0.14745812     0.05200
O1855       O  0.56721078  0.75827151  0.11737017    -0.86200
O1856       O  0.58356864  0.69759029  0.13795990    -0.83200
C1857       C  0.57947817  0.66210552  0.14400539     0.97300
O1858       O  0.54210164  0.62978847  0.14669209    -0.83300
O1859       O  0.99643366  0.64668666  0.18552528    -0.85900
C1860       C  0.48290830  0.67139705  0.19271440     1.01800
O1861       O  0.47390910  0.69524763  0.17982812    -0.78700
O1862       O  0.54225353  0.76289480  0.15358513    -0.78900
C1863       C  0.57138038  0.77915739  0.13699690     1.01700
O1864       O  0.50755601  0.69732966  0.08606808    -0.86200
O1865       O  0.53228171  0.63984988  0.10006240    -0.83300
C1866       C  0.99322336  0.60845006  0.09914834     0.97300
O1867       O  0.96627502  0.59949387  0.11657216    -0.83300
O1868       O  0.92187400  0.61158492  0.15458514    -0.85900
C1869       C  0.90203046  0.63056228  0.14767900     1.01800
O1870       O  0.92269227  0.66922052  0.14068712    -0.78700
O1871       O  0.98511620  0.73253901  0.11060850    -0.78900
C1872       C  0.98875795  0.71667928  0.08987122     1.01700
Cr1873     Cr  0.54461723  0.69691642  0.11232736     1.93700
Cr1874     Cr  0.98348992  0.62567232  0.15060964     1.93200
Cr1875     Cr  0.98408754  0.71269785  0.14669402     1.39100
O1876       O  0.50314795  0.67894834  0.13495048    -1.23900
O1877       O  0.69432162  0.81510628  0.14073917    -0.86200
O1878       O  0.63437764  0.82800642  0.11817194    -0.83200
C1879       C  0.61182977  0.82134750  0.13745795     0.97300
O1880       O  0.62535519  0.84978341  0.15438049    -0.83300
O1881       O  0.68944865  0.91854783  0.18227491    -0.85900
C1882       C  0.71083239  0.90709529  0.19582642     1.01800
O1883       O  0.73541245  0.89525689  0.18624829    -0.78700
O1884       O  0.76142662  0.85569946  0.15050820    -0.78900
C1885       C  0.72876518  0.81865746  0.14832431     1.01700
O1886       O  0.75575724  0.87082099  0.10428004    -0.86200
O1887       O  0.69634515  0.89093083  0.08850488    -0.83300
C1888       C  0.66739362  0.90053685  0.08851462     0.97300
O1889       O  0.65309400  0.90593641  0.10945415    -0.83300
O1890       O  0.71821658  0.97206427  0.13832522    -0.85900
C1891       C  0.75590648  0.99251061  0.14717955     1.01800
O1892       O  0.77242963  0.97252240  0.15735656    -0.78700
O1893       O  0.79069747  0.93442924  0.11928314    -0.78900
C1894       C  0.78299403  0.90944962  0.10116824     1.01700
Cr1895     Cr  0.69646600  0.85382653  0.11474096     1.93700
Cr1896     Cr  0.67414999  0.91047859  0.14563162     1.93200
Cr1897     Cr  0.76136260  0.91277331  0.15236902     1.39100
O1898       O  0.71068216  0.89305893  0.13781273    -1.23900
O1899       O  0.63723456  0.67168455  0.11980876    -0.86200
O1900       O  0.69519824  0.74616327  0.14263929    -0.83200
C1901       C  0.72950329  0.77828707  0.14915341     0.97300
O1902       O  0.76334877  0.77552620  0.15111064    -0.83300
O1903       O  0.74486815  0.71057351  0.18662450    -0.85900
C1904       C  0.71990209  0.67464919  0.19652608     1.01800
O1905       O  0.69741974  0.64181427  0.18336890    -0.78700
O1906       O  0.63337203  0.64408784  0.15629940    -0.78900
C1907       C  0.61789234  0.65807770  0.14028602     1.01700
O1908       O  0.70327983  0.67702428  0.09000370    -0.86200
O1909       O  0.75644183  0.75760821  0.10432646    -0.83300
C1910       C  0.78731652  0.75134302  0.10078606     0.97300
O1911       O  0.79530000  0.73164529  0.11753125    -0.83300
O1912       O  0.78230802  0.67342382  0.15498491    -0.85900
C1913       C  0.76388103  0.63510944  0.14731451     1.01800
O1914       O  0.72566079  0.61709883  0.13990641    -0.78700
O1915       O  0.66348866  0.61663396  0.11043479    -0.78900
C1916       C  0.68166060  0.63729762  0.09029815     1.01700
Cr1917     Cr  0.69918795  0.71154310  0.11607264     1.93700
Cr1918     Cr  0.76786354  0.72059040  0.15171811     1.93200
Cr1919     Cr  0.68216301  0.63389098  0.14684640     1.39100
O1920       O  0.71672361  0.68805881  0.13848949    -1.23900
C1921       C  0.64048442  0.00405279  0.96661274     0.79400
N1922       N  0.65501428  0.53970967  0.97984415    -0.78900
C1923       C  0.65866372  0.54054800  0.00511483     0.81800
N1924       N  0.64733086  0.00562844  0.01686905    -0.78900
C1925       C  0.63499429  0.96893185  0.00461716     0.81900
N1926       N  0.63175722  0.96781187  0.97924681    -0.80600
C1927       C  0.65188152  0.59957002  0.02355270    -0.02700
C1928       C  0.67617022  0.57947010  0.01992347     0.07000
C1929       C  0.70778385  0.58557654  0.03732054    -0.02800
C1930       C  0.70880827  0.60365267  0.06067207    -0.02800
C1931       C  0.67865125  0.61637530  0.06633714     0.07100
C1932       C  0.65335537  0.61851964  0.04686246    -0.03000
Br1933     Br  0.62220785  0.64856058  0.05170116    -0.01600
Br1934     Br  0.61679208  0.60050037  0.99677983    -0.01600
Br1935     Br  0.75290815  0.61269538  0.08406343    -0.01600
Br1936     Br  0.74771538  0.56633971  0.02934665    -0.01600
C1937       C  0.60206495  0.92043525  0.04022840    -0.02700
C1938       C  0.63061419  0.93339201  0.01974658     0.07000
C1939       C  0.66403740  0.92423153  0.01951219    -0.02800
C1940       C  0.67150992  0.90642783  0.04092339    -0.02800
C1941       C  0.64989652  0.90426669  0.06386342     0.07100
C1942       C  0.61170454  0.90620988  0.06248633    -0.03000
Br1943     Br  0.57073561  0.88697706  0.08980135    -0.01600
Br1944     Br  0.55247724  0.92732090  0.03826722    -0.01600
Br1945     Br  0.70789649  0.88173236  0.03691019    -0.01600
Br1946     Br  0.70376719  0.94219723  0.99154173    -0.01600
C1947       C  0.81863861  0.76909868  0.03109956    -0.02700
C1948       C  0.86367976  0.79004274  0.03247377     0.07000
C1949       C  0.88299183  0.80363701  0.05640777    -0.02800
C1950       C  0.85828557  0.78957235  0.07858006    -0.02800
C1951       C  0.81341068  0.76680774  0.07725522     0.07100
C1952       C  0.79398902  0.76045835  0.05329285    -0.03000
Br1953     Br  0.73396801  0.74098651  0.04980712    -0.01600
Br1954     Br  0.78921823  0.74816140  0.99953589    -0.01600
Br1955     Br  0.88616098  0.80491294  0.11085562    -0.01600
Br1956     Br  0.94393562  0.84085945  0.05919562    -0.01600
C1957       C  0.91970741  0.70362142  0.03507478    -0.02700
C1958       C  0.94960670  0.73218214  0.01738001     0.07000
C1959       C  0.99335606  0.75282321  0.02293834    -0.02800
C1960       C  0.00651616  0.74790134  0.04690317    -0.02800
C1961       C  0.97557302  0.72600588  0.06591103     0.07100
C1962       C  0.93198236  0.70565457  0.06011579    -0.03000
Br1963     Br  0.88932159  0.68674256  0.08646849    -0.01600
Br1964     Br  0.85992674  0.67125553  0.02633893    -0.01600
Br1965     Br  0.56946417  0.78627717  0.05370096    -0.01600
Br1966     Br  0.03415802  0.79179786  0.99882147    -0.01600
C1967       C  0.82883661  0.91114696  0.03679256    -0.02700
C1968       C  0.82804806  0.94561199  0.02527563     0.07000
C1969       C  0.81157615  0.96799369  0.03865213    -0.02800
C1970       C  0.79839214  0.95760870  0.06385886    -0.02800
C1971       C  0.80176992  0.92461687  0.07588457     0.07100
C1972       C  0.81744918  0.90192242  0.06225346    -0.03000
Br1973     Br  0.83000748  0.86342896  0.07977962    -0.01600
Br1974     Br  0.85031350  0.88004893  0.01804348    -0.01600
Br1975     Br  0.77587814  0.98893173  0.08143304    -0.01600
Br1976     Br  0.81129198  0.01590418  0.02301973    -0.01600
C1977       C  0.99139590  0.55827992  0.03584009    -0.02700
C1978       C  0.96137038  0.56504789  0.02272980     0.07000
C1979       C  0.94349339  0.58720607  0.03482541    -0.02800
C1980       C  0.94923910  0.59511207  0.06072289    -0.02800
C1981       C  0.98061330  0.59038564  0.07356997     0.07100
C1982       C  0.00270972  0.57298007  0.06073913    -0.03000
Br1983     Br  0.53848006  0.55540493  0.08064793    -0.01600
Br1984     Br  0.01019967  0.52150300  0.02131397    -0.01600
Br1985     Br  0.90870517  0.60470895  0.07904239    -0.01600
Br1986     Br  0.90399444  0.59871013  0.01701406    -0.01600
C1987       C  0.73217440  0.64783771  0.26397780    -0.02700
C1988       C  0.70890247  0.66358972  0.27712217     0.07000
C1989       C  0.68993641  0.68348444  0.26375564    -0.02800
C1990       C  0.69389058  0.68719361  0.23742035    -0.02800
C1991       C  0.71632709  0.67074291  0.22421994     0.07100
C1992       C  0.73532008  0.65080442  0.23752127    -0.03000
Br1993     Br  0.76750444  0.62960824  0.21957541    -0.01600
Br1994     Br  0.76285540  0.62577837  0.28242086    -0.01600
Br1995     Br  0.66896516  0.71507316  0.21910534    -0.01600
Br1996     Br  0.65910958  0.70636615  0.28159110    -0.01600
C1997       C  0.74233573  0.77832197  0.39177336    -0.02700
C1998       C  0.78008335  0.78344911  0.40254890     0.07000
C1999       C  0.80720529  0.77327826  0.38878416    -0.02800
C2000       C  0.79460359  0.75423012  0.36513990    -0.02800
C2001       C  0.75474190  0.74489380  0.35557905     0.07100
C2002       C  0.72987449  0.75930082  0.36810238    -0.03000
Br2003     Br  0.67651592  0.74854324  0.35376944    -0.01600
Br2004     Br  0.70641645  0.79465131  0.41015179    -0.01600
Br2005     Br  0.82938881  0.73654555  0.34681645    -0.01600
Br2006     Br  0.86085482  0.78431538  0.40261926    -0.01600
C2007       C  0.61630984  0.57550772  0.36107426    -0.02700
C2008       C  0.66109365  0.59605026  0.36222483     0.07000
C2009       C  0.68035844  0.59530169  0.38512340    -0.02800
C2010       C  0.65632161  0.58271830  0.40755748    -0.02800
C2011       C  0.61236125  0.56884635  0.40703061     0.07100
C2012       C  0.59179910  0.56102021  0.38338053    -0.03000
Br2013     Br  0.53049671  0.52959237  0.38070618    -0.01600
Br2014     Br  0.58873530  0.57034197  0.32934414    -0.01600
Br2015     Br  0.68298361  0.58213639  0.43874878    -0.01600
Br2016     Br  0.74075304  0.61525941  0.38590073    -0.01600
C2017       C  0.92158452  0.57821480  0.37372736    -0.02700
C2018       C  0.95554013  0.60842573  0.35871496     0.07000
C2019       C  0.99760526  0.62874283  0.36785478    -0.02800
C2020       C  0.00535209  0.62032752  0.39234208    -0.02800
C2021       C  0.97102295  0.59149010  0.40767337     0.07100
C2022       C  0.92915085  0.57066934  0.39846231    -0.03000
Br2023     Br  0.88226814  0.53305404  0.41998381    -0.01600
Br2024     Br  0.86420547  0.54961349  0.36072687    -0.01600
Br2025     Br  0.56628968  0.65123489  0.40702334    -0.01600
Br2026     Br  0.04387107  0.67184172  0.34788847    -0.01600
C2027       C  0.94550049  0.75979876  0.35140584    -0.02700
C2028       C  0.91883298  0.71567492  0.35356381     0.07000
C2029       C  0.89730198  0.69910839  0.37659792    -0.02800
C2030       C  0.91278737  0.72265105  0.39884276    -0.02800
C2031       C  0.94707370  0.76541021  0.39764718     0.07100
C2032       C  0.95904146  0.78506802  0.37329576    -0.03000
Br2033     Br  0.49415019  0.84817762  0.36811354    -0.01600
Br2034     Br  0.49026399  0.78869622  0.32027152    -0.01600
Br2035     Br  0.88572784  0.69441277  0.43008763    -0.01600
Br2036     Br  0.84972214  0.64147389  0.37759303    -0.01600
C2037       C  0.93492493  0.63087445  0.25974648    -0.02700
C2038       C  0.95894054  0.66707437  0.27483808     0.07000
C2039       C  0.99369381  0.70386944  0.26420983    -0.02800
C2040       C  0.51168067  0.68495128  0.23623963    -0.02800
C2041       C  0.97876924  0.66914746  0.22326750     0.07100
C2042       C  0.94486492  0.63185566  0.23406670    -0.03000
Br2043     Br  0.91082076  0.58231298  0.21360097    -0.01600
Br2044     Br  0.88720407  0.58020925  0.27403773    -0.01600
Br2045     Br  0.56817139  0.70691302  0.22239249    -0.01600
Br2046     Br  0.55429252  0.70842997  0.28425429    -0.01600
C2047       C  0.75618249  0.96238236  0.38624298    -0.02700
C2048       C  0.76256762  0.94483565  0.36392369     0.07000
C2049       C  0.79237611  0.93057389  0.36397714    -0.02800
C2050       C  0.81067695  0.92831049  0.38686063    -0.02800
C2051       C  0.79557924  0.93596070  0.40997288     0.07100
C2052       C  0.77057329  0.95581865  0.40936281    -0.03000
Br2053     Br  0.75680267  0.97498494  0.44005383    -0.01600
Br2054     Br  0.72532338  0.99334637  0.38522331    -0.01600
Br2055     Br  0.85550616  0.91396001  0.38573089    -0.01600
Br2056     Br  0.80524086  0.91039564  0.33340160    -0.01600
C2057       C  0.59140374  0.85469852  0.39316656    -0.02700
C2058       C  0.59214740  0.89257255  0.40107280     0.07000
C2059       C  0.59758419  0.92311303  0.38262411    -0.02800
C2060       C  0.60780627  0.91857545  0.35770581    -0.02800
C2061       C  0.61399936  0.88449326  0.35129415     0.07100
C2062       C  0.60053900  0.85023286  0.36800499    -0.03000
Br2063     Br  0.60164724  0.80013955  0.35666941    -0.01600
Br2064     Br  0.57812683  0.80829272  0.41588200    -0.01600
Br2065     Br  0.61742190  0.46091584  0.33438698    -0.01600
Br2066     Br  0.59401903  0.97271070  0.39119757    -0.01600
C2067       C  0.69108128  0.87409534  0.26447232    -0.02700
C2068       C  0.70514234  0.91367376  0.27634293     0.07000
C2069       C  0.71987426  0.95090361  0.26175958    -0.02800
C2070       C  0.72155169  0.94876395  0.23537203    -0.02800
C2071       C  0.70821131  0.90922214  0.22348153     0.07100
C2072       C  0.69275315  0.87191537  0.23811476    -0.03000
Br2073     Br  0.67142076  0.81751706  0.22190899    -0.01600
Br2074     Br  0.66884702  0.82270324  0.28441954    -0.01600
Br2075     Br  0.74277401  0.00023653  0.21562876    -0.01600
Br2076     Br  0.73543049  0.00433022  0.27794106    -0.01600
C2077       C  0.75564152  0.81043207  0.57153773    -0.02700
C2078       C  0.79043758  0.84536896  0.55928467     0.07000
C2079       C  0.82228378  0.87868792  0.57376118    -0.02800
C2080       C  0.81998593  0.87641607  0.60016035    -0.02800
C2081       C  0.78531911  0.84166790  0.61221084     0.07100
C2082       C  0.75298899  0.80891414  0.59795292    -0.03000
Br2083     Br  0.70476399  0.76229802  0.61481020    -0.01600
Br2084     Br  0.71035165  0.76525988  0.55243531    -0.01600
Br2085     Br  0.86535107  0.91995591  0.61998502    -0.01600
Br2086     Br  0.87032013  0.92673126  0.55770251    -0.01600
C2087       C  0.59291599  0.48179933  0.90257175    -0.02700
C2088       C  0.62945273  0.50887749  0.88814839     0.07000
C2089       C  0.66985562  0.53100672  0.89946620    -0.02800
C2090       C  0.67352936  0.52788534  0.92546829    -0.02800
C2091       C  0.63685956  0.50166139  0.94005228     0.07100
C2092       C  0.59666391  0.98288384  0.92805148    -0.03000
Br2093     Br  0.54579889  0.95437629  0.94864836    -0.01600
Br2094     Br  0.53799355  0.95703639  0.88619362    -0.01600
Br2095     Br  0.72917661  0.55822415  0.94087714    -0.01600
Br2096     Br  0.72047937  0.56354754  0.87905866    -0.01600
C2097       C  0.89028709  0.79201560  0.90256709    -0.02700
C2098       C  0.86879236  0.75106028  0.89177663     0.07000
C2099       C  0.85444508  0.71480269  0.90717714    -0.02800
C2100       C  0.86331398  0.71943943  0.93310033    -0.02800
C2101       C  0.88556043  0.76050347  0.94381495     0.07100
C2102       C  0.89826801  0.79668446  0.92853481    -0.03000
Br2103     Br  0.92882786  0.85285191  0.94292608    -0.01600
Br2104     Br  0.90906930  0.84193976  0.88172645    -0.01600
Br2105     Br  0.84487472  0.66949254  0.95386695    -0.01600
Br2106     Br  0.82394048  0.65899736  0.89247177    -0.01600
C2107       C  0.84535711  0.79257311  0.73020381    -0.02700
C2108       C  0.80656044  0.75980788  0.74060753     0.07000
C2109       C  0.77140624  0.73691625  0.72475248    -0.02800
C2110       C  0.77411424  0.74730251  0.69916922    -0.02800
C2111       C  0.81045697  0.78369750  0.68990099     0.07100
C2112       C  0.84729608  0.80380439  0.70472901    -0.03000
Br2113     Br  0.89826282  0.85118414  0.69063035    -0.01600
Br2114     Br  0.89551684  0.82404228  0.75041474    -0.01600
Br2115     Br  0.72493580  0.71775261  0.67779144    -0.01600
Br2116     Br  0.71738681  0.69696873  0.73908747    -0.01600
C2117       C  0.86457460  0.53026336  0.93351348    -0.02700
C2118       C  0.88159749  0.50554185  0.94314799     0.07000
C2119       C  0.89889226  0.98968512  0.92539143    -0.02800
C2120       C  0.88226821  0.47972448  0.90083540    -0.02800
C2121       C  0.86607436  0.50511424  0.89117485     0.07100
C2122       C  0.85700023  0.53012122  0.90754409    -0.03000
Br2123     Br  0.83407195  0.56391001  0.89409145    -0.01600
Br2124     Br  0.85051354  0.56338275  0.95582393    -0.01600
Br2125     Br  0.90885474  0.95862975  0.87711663    -0.01600
Br2126     Br  0.92729965  0.96049532  0.93829917    -0.01600
C2127       C  0.77864026  0.92489276  0.69669603    -0.02700
C2128       C  0.75910389  0.88029558  0.69762170     0.07000
C2129       C  0.73891728  0.85865825  0.72016088    -0.02800
C2130       C  0.74775231  0.88122391  0.74280609    -0.02800
C2131       C  0.77258352  0.92587556  0.74247284     0.07100
C2132       C  0.78276460  0.94755048  0.71894612    -0.03000
Br2133     Br  0.80100672  0.00734907  0.71608504    -0.01600
Br2134     Br  0.80422264  0.95546743  0.66589317    -0.01600
Br2135     Br  0.72403538  0.85131039  0.77403597    -0.01600
Br2136     Br  0.70182594  0.79757100  0.72013672    -0.01600
C2137       C  0.93624815  0.74573288  0.68844517    -0.02700
C2138       C  0.98072292  0.76324863  0.68927378     0.07000
C2139       C  0.99927139  0.75904027  0.71147749    -0.02800
C2140       C  0.97713628  0.75085694  0.73440160    -0.02800
C2141       C  0.93380847  0.74086239  0.73452368     0.07100
C2142       C  0.91229813  0.73198788  0.71092439    -0.03000
Br2143     Br  0.85067018  0.69831476  0.70805235    -0.01600
Br2144     Br  0.90827305  0.74236489  0.65706732    -0.01600
Br2145     Br  0.00738303  0.75246849  0.76462058    -0.01600
Br2146     Br  0.55932051  0.77049366  0.70953705    -0.01600
C2147       C  0.62568931  0.90707601  0.69899404    -0.02700
C2148       C  0.59401395  0.90946088  0.68498550     0.07000
C2149       C  0.57832704  0.93621403  0.69293160    -0.02800
C2150       C  0.59134459  0.95740909  0.71606251    -0.02800
C2151       C  0.62031189  0.95190619  0.73110767     0.07100
C2152       C  0.63832696  0.92778020  0.72220176    -0.03000
Br2153     Br  0.67916306  0.92201685  0.74225463    -0.01600
Br2154     Br  0.64888931  0.87223700  0.68722312    -0.01600
Br2155     Br  0.56564611  0.98980121  0.72831415    -0.01600
Br2156     Br  0.53508464  0.93945337  0.67351518    -0.01600
C2157       C  0.50041830  0.84895157  0.59451056    -0.02700
C2158       C  0.52794523  0.83679253  0.60577931     0.07000
C2159       C  0.55306556  0.82556750  0.59083910    -0.02800
C2160       C  0.55062901  0.82631599  0.56456177    -0.02800
C2161       C  0.52285416  0.83808613  0.55316685     0.07100
C2162       C  0.49752296  0.84917568  0.56814021    -0.03000
Br2163     Br  0.45865527  0.86406792  0.55250896    -0.01600
Br2164     Br  0.46755762  0.86608322  0.61527492    -0.01600
Br2165     Br  0.07936892  0.80335734  0.54467753    -0.01600
Br2166     Br  0.08475797  0.80110839  0.60686686    -0.01600
C2167       C  0.60263913  0.64051245  0.71982909    -0.02700
C2168       C  0.60730136  0.62383908  0.69671926     0.07000
C2169       C  0.63349319  0.60530666  0.69570979    -0.02800
C2170       C  0.64844507  0.59712028  0.71821671    -0.02800
C2171       C  0.63381638  0.60392598  0.74173937     0.07100
C2172       C  0.61313498  0.62814336  0.74241501    -0.03000
Br2173     Br  0.60194395  0.64702860  0.77407457    -0.01600
Br2174     Br  0.57962382  0.67857932  0.72045466    -0.01600
Br2175     Br  0.68938719  0.57767678  0.71593605    -0.01600
Br2176     Br  0.64698924  0.58870653  0.66399818    -0.01600
C2177       C  0.44003353  0.53110940  0.69688494    -0.02700
C2178       C  0.96093436  0.56991550  0.68751949     0.07000
C2179       C  0.95608348  0.60335396  0.69730138    -0.02800
C2180       C  0.93747121  0.59904762  0.72109307    -0.02800
C2181       C  0.92378846  0.56134630  0.73493368     0.07100
C2182       C  0.92342515  0.52592988  0.72365367    -0.03000
Br2183     Br  0.89996701  0.47239656  0.74151633    -0.01600
Br2184     Br  0.44462861  0.48520878  0.68162410    -0.01600
Br2185     Br  0.93060274  0.64435508  0.73475990    -0.01600
Br2186     Br  0.98054075  0.65685917  0.67933146    -0.01600
C2187       C  0.55469078  0.62478240  0.56890260    -0.02700
C2188       C  0.54140963  0.58471108  0.55768256     0.07000
C2189       C  0.53047266  0.54879850  0.57284935    -0.02800
C2190       C  0.53368103  0.55299906  0.59909747    -0.02800
C2191       C  0.54696153  0.59293487  0.61023323     0.07100
C2192       C  0.55676729  0.62864715  0.59521085    -0.03000
Br2193     Br  0.56970751  0.68188325  0.61092986    -0.01600
Br2194     Br  0.56999303  0.67450048  0.54846635    -0.01600
Br2195     Br  0.02178217  0.50423002  0.62188152    -0.01600
Br2196     Br  0.01433303  0.49350352  0.55959636    -0.01600
loop_ 
_geom_bond_atom_site_label_1 
_geom_bond_atom_site_label_2 
_geom_bond_distance 
_geom_bond_site_symmetry_2 
_ccdc_geom_bond_type 
C1            N2   1.368       .  A
C1            N6   1.362       .  A
C1          C544   1.466       .  S
N2            C3   1.362       .  A
C3            N4   1.343       .  A
C3          C521   1.477       .  S
N4            C5   1.339       .  A
C5            N6   1.351       .  A
C5         C1629   1.449   1_455  S
C7            N8   1.363       .  A
C7           N12   1.363       .  A
C7          C511   1.461       .  S
N8            C9   1.355       .  A
C9           N10   1.341       .  A
C9          C501   1.456       .  S
N10          C11   1.344       .  A
C11          N12   1.356       .  A
C11        C1589   1.467   1_455  S
C13          C36   1.517       .  S
C13          C14   1.415       .  A
C13          C18   1.423       .  A
C14        C1113   1.413       .  A
C14          H19   1.073       .  S
C15          C80   1.503   1_655  S
C15        C1112   1.413       .  A
C15        C1114   1.415       .  A
C16          C17   1.408       .  A
C16        C1113   1.412       .  A
C16          H20   1.087       .  S
C17          C58   1.513       .  S
C17          C18   1.425       .  A
C18          H21   1.093       .  S
O22         Cr40   1.956       .  S
O22          C30   1.258   1_545  A
O23         Cr40   1.964       .  S
O23          C24   1.254       .  A
C24          C52   1.493       .  S
C24          O25   1.262       .  A
O25         Cr41   2.050       .  S
O26         Cr41   1.987       .  S
O26          C27   1.266       .  A
C27         C474   1.485       .  S
C27         O577   1.270   1_545  A
O28         Cr42   1.992       .  S
O28         C576   1.269       .  A
O29         Cr42   2.064       .  S
O29         C579   1.277       .  A
C30          C68   1.476       .  S
C30         O578   1.278       .  A
O31        Cr589   1.983       .  S
O31          C39   1.249       .  A
O32         Cr40   1.934       .  S
O32          C33   1.250       .  A
C33         C534   1.459       .  S
C33          O34   1.275       .  A
O34         Cr41   2.035       .  S
O35         Cr41   2.013       .  S
O35         C585   1.269   1_545  A
C36          O37   1.271       .  A
C36         O584   1.269       .  A
O37         Cr42   2.031       .  S
O38         Cr42   2.011       .  S
O38          C39   1.265       .  A
C39         C484   1.481       .  S
Cr40        O580   1.983   1_545  S
Cr40         O43   1.760       .  S
Cr41         O43   1.782       .  S
Cr42        O592   1.775       .  S
O43        Cr591   1.778   1_545  S
O44         Cr62   1.959       .  S
O44          C52   1.250       .  A
O45         Cr62   1.943       .  S
O45          C46   1.255       .  A
C46          C74   1.476       .  S
C46          O47   1.279       .  A
O47         Cr63   2.073       .  S
O48         Cr63   1.988       .  S
O48          C49   1.267       .  A
C49         C451   1.477       .  S
C49          O50   1.269       .  A
O50         Cr64   2.005       .  S
O51         Cr64   2.068       .  S
O51          C52   1.272       .  A
O53         Cr62   1.937       .  S
O53          C61   1.251       .  A
O54         Cr62   1.972       .  S
O54          C55   1.252       .  A
C55         C461   1.487       .  S
C55          O56   1.254       .  A
O56         Cr63   2.004       .  S
O57         Cr63   2.010       .  S
O57          C58   1.268       .  A
C58          O59   1.276       .  A
O59         Cr64   2.026       .  S
O60         Cr64   2.046       .  S
O60          C61   1.277       .  A
C61         C494   1.490       .  S
Cr62         O65   1.755       .  S
Cr63         O65   1.781       .  S
Cr64         O65   1.767       .  S
O66         Cr84   1.950       .  S
O66          C74   1.258       .  A
O67         Cr84   1.977       .  S
O67          C68   1.253   1_545  A
C68         O618   1.258       .  A
O69         Cr85   2.026       .  S
O69         C617   1.257       .  A
O70         Cr85   1.988       .  S
O70         C620   1.264       .  A
C71         C441   1.466       .  S
C71          O72   1.263       .  A
C71         O619   1.264   1_545  A
O72         Cr86   1.972       .  S
O73         Cr86   2.066       .  S
O73          C74   1.277       .  A
O75         Cr84   1.990       .  S
O75          C83   1.254       .  A
O76        Cr633   1.937       .  S
O76          C77   1.253       .  A
C77         C504   1.465       .  S
C77          O78   1.277       .  A
O78         Cr85   2.032       .  S
O79         Cr85   1.983       .  S
O79          C80   1.264       .  A
C80         O630   1.274       .  A
O81         Cr86   2.033       .  S
O81         C629   1.273   1_545  A
O82         Cr86   1.994       .  S
O82          C83   1.263       .  A
C83         C524   1.477       .  S
Cr84        O625   1.937       .  S
Cr84         O87   1.755       .  S
Cr85        O636   1.774       .  S
Cr86         O87   1.769       .  S
O87        Cr634   1.774   1_545  S
C88          N89   1.368       .  A
C88          N93   1.365       .  A
C88         C434   1.470       .  S
N89          C90   1.361       .  A
C90          N91   1.340       .  A
C90         C481   1.471       .  S
N91          C92   1.339       .  A
C92          N93   1.355       .  A
C92         C464   1.456       .  S
C94          N95   1.365       .  A
C94          N99   1.372       .  A
C94         C421   1.476       .  S
N95          C96   1.354       .  A
C96          N97   1.341       .  A
C96         C414   1.456       .  S
N97          C98   1.342       .  A
C98          N99   1.364       .  A
C98         C401   1.482       .  S
C100        N101   1.363       .  A
C100        N105   1.370       .  A
C100        C391   1.469       .  S
N101        C102   1.351       .  A
C102        N103   1.336       .  A
C102        C371   1.445       .  S
N103        C104   1.339       .  A
C104        N105   1.361       .  A
C104        C381   1.473       .  S
C106        C129   1.507       .  S
C106        C107   1.406       .  A
C106        C111   1.421       .  A
C107        C108   1.416       .  A
C107        H112   1.082       .  S
C108        C151   1.503       .  S
C108        C109   1.414       .  A
C109        C110   1.417       .  A
C109        H113   1.091       .  S
C110        C173   1.513       .  S
C110        C111   1.417       .  A
C111        H114   1.075       .  S
O115      Cr1231   1.958       .  S
O115        C123   1.251       .  A
O116       Cr133   1.952       .  S
O116        C117   1.259       .  A
C117        C145   1.472       .  S
C117        O118   1.273       .  A
O118       Cr134   2.053       .  S
O119       Cr134   1.976       .  S
O119        C120   1.264       .  A
C120        C514   1.467       .  S
C120       O1219   1.268       .  A
O121       Cr135   2.000       .  S
O121       C1218   1.268       .  A
O122       Cr135   2.064       .  S
O122        C123   1.268       .  A
C123        C161   1.493       .  S
O124      Cr1231   1.943       .  S
O124        C132   1.254       .  A
O125       Cr133   1.972       .  S
O125        C126   1.253       .  A
C126        C411   1.488       .  S
C126        O127   1.257       .  A
O127       Cr134   2.004       .  S
O128       Cr134   1.998       .  S
O128        C129   1.264       .  A
C129        O130   1.276       .  A
O130      Cr1233   2.026   1_455  S
O131       Cr135   2.054       .  S
O131        C132   1.280       .  A
C132        C384   1.500       .  S
Cr133      O1213   1.962   1_455  S
Cr133      O1222   1.949   1_455  S
Cr133       O136   1.755       .  S
Cr134       O136   1.781       .  S
Cr135      O1228   2.031       .  S
Cr135      O1234   1.767       .  S
O136      Cr1233   1.768   1_455  S
O137       Cr704   1.938       .  S
O137        C145   1.257       .  A
O138      Cr1802   1.971       .  S
O138        C139   1.248       .  A
C139        C167   1.475       .  S
C139        O689   1.261       .  A
O140       Cr156   2.036       .  S
O140        C688   1.261   1_545  A
O141       Cr156   1.995       .  S
O141       C1240   1.265       .  A
C142        C541   1.475       .  S
C142        O143   1.264       .  A
C142       O1239   1.265       .  A
O143       Cr157   1.982       .  S
O144       Cr157   2.071       .  S
O144        C694   1.281   1_545  A
C145        O693   1.282       .  A
O146       Cr155   1.994       .  S
O146        C154   1.253       .  A
O147      Cr1253   1.909       .  S
O147        C148   1.250       .  A
C148        C374   1.448       .  S
C148        O149   1.275       .  A
O149       Cr156   2.033       .  S
O150      Cr1254   1.981   1_455  S
O150        C151   1.264       .  A
C151        O152   1.275       .  A
O152       Cr157   2.035       .  S
O153       Cr157   2.007       .  S
O153        C154   1.263       .  A
C154        C364   1.485       .  S
Cr155       O686   1.939   1_445  S
Cr155      O1785   1.972   1_445  S
Cr155      O1245   1.923       .  S
Cr155       O158   1.755       .  S
Cr156      O1248   1.978       .  S
Cr156      O1256   1.779       .  S
Cr157       O158   1.772       .  S
O158      Cr1254   1.776   1_455  S
O159       Cr177   1.960       .  S
O159        C167   1.263       .  A
O160       Cr177   1.961       .  S
O160        C161   1.250       .  A
C161        O162   1.261       .  A
O162       Cr178   2.052       .  S
O163       Cr178   2.005       .  S
O163        C164   1.271       .  A
C164        C431   1.483       .  S
C164        O165   1.264       .  A
O165       Cr179   1.972       .  S
O166       Cr179   2.072       .  S
O166        C167   1.283       .  A
O168       Cr177   1.987       .  S
O168        C176   1.248       .  A
O169       Cr177   1.936       .  S
O169        C170   1.255       .  A
C170        C351   1.459       .  S
C170        O171   1.281       .  A
O171       Cr178   2.043       .  S
O172       Cr178   1.999       .  S
O172        C173   1.265       .  A
C173        O174   1.271       .  A
O174       Cr179   2.029       .  S
O175       Cr179   2.010       .  S
O175        C176   1.261       .  A
C176        C404   1.487       .  S
Cr177       O180   1.760       .  S
Cr178       O180   1.784       .  S
Cr179       O180   1.775       .  S
C181        N182   1.372       .  A
C181        N186   1.363       .  A
C181        C341   1.476       .  S
N182        C183   1.366       .  A
C183        N184   1.342       .  A
C183        C361   1.477       .  S
N184        C185   1.339       .  A
C185        N186   1.353       .  A
C185        C354   1.452       .  S
C187        N192   1.367       .  A
C187        N737   1.367       .  A
C187       C1020   1.475       .  S
N188        C189   1.361   1_556  A
N188        C736   1.370       .  A
C189        N739   1.338       .  A
C189        C331   1.461       .  S
N190        C191   1.340       .  A
N190        C738   1.342       .  A
C191        N192   1.359   1_554  A
C191        C321   1.462       .  S
C193        N194   1.365       .  A
C193        N198   1.371       .  A
C193        C454   1.479       .  S
N194        C195   1.354   1_556  A
C195        N196   1.339       .  A
C195        C311   1.457       .  S
N196        C197   1.339       .  A
C197        N198   1.363   1_554  A
C197        C301   1.489       .  S
C199        C266   1.500       .  S
C199        C200   1.416       .  A
C199        C204   1.412       .  A
C200        C201   1.408       .  A
C200        H205   1.082       .  S
C201        C793   1.515   1_545  S
C201        C202   1.425       .  A
C202        C203   1.424       .  A
C202        H206   1.087       .  S
C203        C222   1.518       .  S
C203        C204   1.414       .  A
C204        H207   1.083       .  S
O208       Cr226   1.974       .  S
O208        C216   1.255       .  A
O209       Cr226   1.952       .  S
O209        C210   1.255       .  A
C210        C260   1.464       .  S
C210        O211   1.275       .  A
O211      Cr1325   2.058   1_455  S
O212       Cr227   1.981       .  S
O212       C1311   1.266       .  A
C213       C1492   1.475       .  S
C213        O214   1.268       .  A
C213       O1310   1.266       .  A
O214      Cr1326   2.001       .  S
O215      Cr1326   2.063   1_455  S
O215        C216   1.266       .  A
C216        C232   1.508       .  S
O217       Cr226   1.939       .  S
O217       C1323   1.258   1_455  A
O218       Cr226   2.006       .  S
O218       C1317   1.256   1_455  A
C219        C334   1.475       .  S
C219        O220   1.260       .  A
C219       O1316   1.252       .  A
O220       Cr227   2.004       .  S
O221       Cr227   2.025       .  S
O221        C222   1.269       .  A
C222        O223   1.271       .  A
O223       Cr228   2.016       .  S
O224       Cr228   2.033       .  S
O224        C225   1.276       .  A
C225        C314   1.463       .  S
C225       O1315   1.259       .  A
Cr226       O229   1.767       .  S
Cr227      O1309   2.066       .  S
Cr227      O1327   1.784       .  S
Cr228      O1312   1.987       .  S
Cr228      O1313   2.062       .  S
Cr228      O1327   1.781       .  S
O229      Cr1325   1.787   1_455  S
O229      Cr1326   1.782   1_455  S
O230       Cr248   1.945       .  S
O230        C238   1.256       .  A
O231       Cr248   1.972       .  S
O231        C232   1.254       .  A
C232        O233   1.274       .  A
O233       Cr249   2.076       .  S
O234       Cr249   2.010       .  S
O234        C235   1.269       .  A
C235        C424   1.478       .  S
C235        O236   1.264       .  A
O236       Cr250   1.978       .  S
O237       Cr250   2.061       .  S
O237        C238   1.275       .  A
C238        C254   1.474       .  S
O239       Cr248   1.986       .  S
O239        C247   1.256       .  A
O240       Cr248   1.944       .  S
O240        C241   1.254       .  A
C241        C294   1.501       .  S
C241        O242   1.277       .  A
O242       Cr249   2.048       .  S
O243       Cr249   2.032       .  S
O243        C244   1.277       .  A
C244        C750   1.512       .  S
C244        O245   1.267       .  A
O245       Cr250   2.008       .  S
O246       Cr250   1.990       .  S
O246        C247   1.254       .  A
C247        C324   1.477       .  S
Cr248       O251   1.755       .  S
Cr249       O251   1.767       .  S
Cr250       O251   1.782       .  S
O252       Cr270   1.970       .  S
O252        C260   1.249       .  A
O253       Cr270   1.944       .  S
O253        C254   1.256       .  A
C254        O255   1.278       .  A
O255       Cr271   2.070       .  S
O256       Cr271   1.988       .  S
O256        C257   1.266       .  A
C257        C344   1.477       .  S
C257        O258   1.268       .  A
O258       Cr272   2.004       .  S
O259       Cr272   2.020       .  S
O259        C260   1.256       .  A
O261       Cr270   1.920       .  S
O261        C269   1.249       .  A
O262       Cr270   1.995       .  S
O262        C263   1.256       .  A
C263        C304   1.488       .  S
C263        O264   1.264       .  A
O264       Cr271   2.007       .  S
O265       Cr271   2.032       .  S
O265        C266   1.273       .  A
C266        O267   1.262       .  A
O267       Cr272   1.977       .  S
O268       Cr272   2.048       .  S
O268        C269   1.280       .  A
C269        C284   1.457       .  S
Cr270       O273   1.759       .  S
Cr271       O273   1.770       .  S
Cr272       O273   1.776       .  S
C274        N279   1.364       .  A
C274        N824   1.361       .  A
C274        C993   1.462       .  S
N275        C276   1.351   1_556  A
N275        C823   1.362       .  A
C276        N826   1.342       .  A
C276        C281   1.455       .  S
N277        C278   1.342       .  A
N277        C825   1.344       .  A
C278        N279   1.356   1_554  A
C278        C291   1.461       .  S
C280        C281   1.402       .  A
C280        C285   1.406       .  A
C280       Br287   1.925       .  S
C281        C282   1.405       .  A
C282        C283   1.395       .  A
C282       Br289   1.933       .  S
C283        C284   1.406       .  A
C283       Br288   1.926       .  S
C284        C285   1.414       .  A
C285       Br286   1.929       .  S
C290        C291   1.404       .  A
C290        C295   1.407       .  A
C290       Br297   1.931       .  S
C291        C292   1.401       .  A
C292        C293   1.404       .  A
C292       Br299   1.936   1_554  S
C293        C294   1.429       .  A
C293       Br298   1.935       .  S
C294        C295   1.422       .  A
C295       Br296   1.933       .  S
C300        C301   1.411       .  A
C300        C305   1.413       .  A
C300       Br307   1.933   1_554  S
C301        C302   1.418       .  A
C302        C303   1.404       .  A
C302       Br309   1.934       .  S
C303        C304   1.407       .  A
C303       Br308   1.933       .  S
C304        C305   1.424       .  A
C305       Br306   1.928       .  S
C310        C311   1.410       .  A
C310        C315   1.395       .  A
C310       Br317   1.933       .  S
C311        C312   1.405       .  A
C312        C313   1.409       .  A
C312       Br319   1.927       .  S
C313        C314   1.414       .  A
C313      Br1416   1.928       .  S
C314        C315   1.401       .  A
C315       Br316   1.930       .  S
Br318      C1411   1.928       .  S
C320        C321   1.404       .  A
C320        C325   1.404       .  A
C320       Br327   1.927       .  S
C321        C322   1.410       .  A
C322        C323   1.408       .  A
C322       Br329   1.927       .  S
C323        C324   1.411       .  A
C323       Br328   1.930       .  S
C324        C325   1.403       .  A
C325       Br326   1.911       .  S
C330        C331   1.415       .  A
C330        C335   1.411       .  A
C330       Br337   1.928       .  S
C331        C332   1.407       .  A
C332        C333   1.401       .  A
C332       Br339   1.933       .  S
C333        C334   1.404       .  A
C333       Br338   1.914       .  S
C334        C335   1.408       .  A
C335      Br1434   1.929       .  S
Br336      C1433   1.928   1_455  S
C340        C341   1.408       .  A
C340        C345   1.410       .  A
C340       Br347   1.927       .  S
C341        C342   1.410       .  A
C342        C343   1.409       .  A
C342       Br349   1.931       .  S
C343        C344   1.408       .  A
C343       Br348   1.928       .  S
C344        C345   1.410       .  A
C345       Br346   1.929       .  S
C350        C351   1.408       .  A
C350        C355   1.402       .  A
C350       Br357   1.931       .  S
C351        C352   1.406       .  A
C352        C353   1.402       .  A
C352       Br359   1.923       .  S
C353        C354   1.405       .  A
C353       Br358   1.929       .  S
C354        C355   1.406       .  A
C355       Br356   1.929       .  S
C360        C361   1.405       .  A
C360        C365   1.411       .  A
C360       Br367   1.928       .  S
C361        C362   1.414       .  A
C362        C363   1.406       .  A
C362       Br369   1.930       .  S
C363        C364   1.406       .  A
C363       Br368   1.929       .  S
C364        C365   1.421       .  A
C365       Br366   1.926       .  S
C370        C371   1.408       .  A
C370        C375   1.401       .  A
C370       Br377   1.929       .  S
C371        C372   1.405       .  A
C372        C373   1.396       .  A
C372       Br379   1.925       .  S
C373        C374   1.408       .  A
C373      Br1476   1.935       .  S
C374        C375   1.402       .  A
C375       Br376   1.922       .  S
Br378      C1471   1.935       .  S
C380        C381   1.401       .  A
C380        C385   1.407       .  A
C380      Br1485   1.930       .  S
C381        C382   1.412       .  A
C382        C383   1.405       .  A
C382       Br389   1.934       .  S
C383        C384   1.417       .  A
C383       Br388   1.933       .  S
C384        C385   1.430       .  A
C385      Br1484   1.934       .  S
Br386      C1483   1.934       .  S
Br387      C1478   1.931       .  S
C390        C391   1.406       .  A
C390        C395   1.404       .  A
C390       Br397   1.931       .  S
C391        C392   1.411       .  A
C392       C1491   1.405       .  A
C392      Br1497   1.925       .  S
C393       C1490   1.409   1_455  A
C393       C1492   1.407   1_455  A
C393       Br398   1.924       .  S
C394       C1311   1.471       .  S
C394        C395   1.413       .  A
C394       C1491   1.406       .  A
C395       Br396   1.930       .  S
Br399      C1490   1.928   1_455  S
C400        C401   1.417       .  A
C400        C405   1.404       .  A
C400       Br407   1.934       .  S
C401        C402   1.406       .  A
C402        C403   1.412       .  A
C402       Br409   1.929       .  S
C403        C404   1.423       .  A
C403       Br408   1.930       .  S
C404        C405   1.406       .  A
C405       Br406   1.931       .  S
C410        C411   1.419       .  A
C410        C415   1.407       .  A
C410       Br417   1.924       .  S
C411        C412   1.415       .  A
C412        C413   1.405       .  A
C412       Br419   1.914       .  S
C413        C414   1.400       .  A
C413       Br967   1.929       .  S
C414        C415   1.401       .  A
C415       Br416   1.927       .  S
Br418       C962   1.930       .  S
C420        C421   1.411       .  A
C420        C425   1.408       .  A
C420       Br427   1.931       .  S
C421        C422   1.409       .  A
C422        C423   1.409       .  A
C422       Br429   1.930       .  S
C423        C424   1.413       .  A
C423       Br428   1.931       .  S
C424        C425   1.407       .  A
C425       Br426   1.926       .  S
C430        C431   1.416       .  A
C430        C435   1.409       .  A
C430       Br437   1.933       .  S
C431        C432   1.415       .  A
C432        C433   1.407       .  A
C432       Br439   1.933       .  S
C433        C434   1.406       .  A
C433       Br438   1.932       .  S
C434        C435   1.406       .  A
C435       Br436   1.931       .  S
C440        C441   1.411   1_565  A
C440        C994   1.405       .  A
C440       Br996   1.934       .  S
C441        C442   1.409       .  A
C442        C443   1.402       .  A
C442       Br449   1.933       .  S
C443        C444   1.409       .  A
C443       Br448   1.933       .  S
C444        C823   1.465       .  S
C444        C994   1.407   1_545  A
C445        C989   1.403       .  A
C445        C993   1.408       .  A
C445       Br446   1.929       .  S
Br447       C989   1.932       .  S
C450        C451   1.412       .  A
C450        C455   1.407       .  A
C450       Br457   1.928       .  S
C451        C452   1.407       .  A
C452        C453   1.410       .  A
C452       Br459   1.929       .  S
C453        C454   1.414       .  A
C453       Br458   1.930       .  S
C454        C455   1.409       .  A
C455       Br456   1.933       .  S
C460        C461   1.418       .  A
C460        C465   1.407       .  A
C460       Br467   1.922       .  S
C461        C462   1.409       .  A
C462        C463   1.404       .  A
C462       Br469   1.910       .  S
C463        C464   1.402       .  A
C463       Br468   1.929       .  S
C464        C465   1.403       .  A
C465       Br466   1.930       .  S
C470        C471   1.414       .  A
C470        C475   1.411       .  A
C470       Br477   1.926       .  S
C471        C736   1.486       .  S
C471       C1021   1.412       .  A
C472       C1020   1.408       .  A
C472       C1022   1.405       .  A
C472       Br479   1.933       .  S
C473        C474   1.418       .  A
C473       C1021   1.409       .  A
C473      Br1027   1.937       .  S
C474        C475   1.410       .  A
C475       Br476   1.932       .  S
Br478      C1022   1.931       .  S
C480        C481   1.402       .  A
C480        C485   1.407       .  A
C480       Br487   1.930       .  S
C481        C482   1.415       .  A
C482        C483   1.402       .  A
C482       Br489   1.933       .  S
C483        C484   1.405       .  A
C483       Br488   1.930       .  S
C484        C485   1.424       .  A
C485       Br486   1.930       .  S
C490        C491   1.403       .  A
C490        C495   1.403       .  A
C490       Br497   1.931       .  S
C491       C1109   1.466       .  S
C491        C492   1.408       .  A
C492        C493   1.401       .  A
C492      Br1597   1.933       .  S
C493        C494   1.416       .  A
C493       Br498   1.933       .  S
C494        C495   1.428       .  A
C495       Br496   1.938       .  S
Br499      C1590   1.931   1_455  S
C500        C501   1.407       .  A
C500        C505   1.402       .  A
C500       Br507   1.929       .  S
C501        C502   1.405       .  A
C502        C503   1.403       .  A
C502       Br509   1.929       .  S
C503        C504   1.413       .  A
C503       Br508   1.933       .  S
C504        C505   1.405       .  A
C505       Br506   1.923       .  S
C510        C511   1.407       .  A
C510        C515   1.405       .  A
C510       Br517   1.929   1_455  S
C511        C512   1.404       .  A
C512        C513   1.403       .  A
C512      Br1617   1.932       .  S
C513        C514   1.411       .  A
C513      Br1616   1.928       .  S
C514        C515   1.407       .  A
C515       Br516   1.928   1_455  S
Br518      C1611   1.929       .  S
Br519      C1610   1.933       .  S
C520        C521   1.414       .  A
C520        C525   1.401       .  A
C520       Br527   1.931       .  S
C521        C522   1.406       .  A
C522        C523   1.408       .  A
C522       Br529   1.930       .  S
C523        C524   1.423       .  A
C523       Br528   1.930       .  S
C524        C525   1.406       .  A
C525       Br526   1.932       .  S
C530       C1629   1.405       .  A
C530       C1633   1.401       .  A
C530       Br537   1.928   1_545  S
C531       C1103   1.450       .  S
C531        C532   1.405       .  A
C531       C1628   1.404       .  A
C532        C533   1.400       .  A
C532       Br539   1.930       .  S
C533        C534   1.404       .  A
C533       Br538   1.920       .  S
C534        C535   1.409       .  A
C535       C1628   1.402       .  A
C535       Br536   1.931   1_545  S
C540        C541   1.415       .  A
C540        C545   1.407       .  A
C540       Br547   1.931       .  S
C541        C542   1.409       .  A
C542        C543   1.406       .  A
C542      Br1647   1.930   1_545  S
C543        C544   1.408       .  A
C543      Br1646   1.929       .  S
C544        C545   1.405       .  A
C545       Br546   1.932       .  S
Br548      C1641   1.929       .  S
Br549      C1640   1.930   1_565  S
C550        N551   1.366       .  A
C550        N555   1.361       .  A
C550       C1093   1.464       .  S
N551        C552   1.360       .  A
C552        N553   1.343       .  A
C552       C1070   1.475       .  S
N553        C554   1.340       .  A
C554        N555   1.351       .  A
C554       C2178   1.449   1_455  S
C556        N557   1.362       .  A
C556        N561   1.366       .  A
C556       C1060   1.463       .  S
N557        C558   1.354       .  A
C558        N559   1.340       .  A
C558       C1050   1.455       .  S
N559        C560   1.344       .  A
C560        N561   1.359       .  A
C560       C2138   1.474   1_455  S
C562        C585   1.517       .  S
C562        C563   1.416       .  A
C562        C567   1.421       .  A
C563       C1662   1.414       .  A
C563        H568   1.073   1_565  S
C564        C629   1.500   1_655  S
C564       C1661   1.413       .  A
C564       C1663   1.414       .  A
C565       C1662   1.412       .  A
C565        C566   1.407       .  A
C565        H569   1.087       .  S
C566        C607   1.512       .  S
C566        C567   1.424       .  A
C567        H570   1.093       .  S
O571       Cr589   1.956       .  S
O571        C579   1.259       .  A
O572       Cr589   1.964       .  S
O572        C573   1.254       .  A
C573        C601   1.495       .  S
C573        O574   1.263       .  A
O574       Cr590   2.055       .  S
O575       Cr590   1.988       .  S
O575        C576   1.266       .  A
C576       C1023   1.475       .  S
O577       Cr591   1.994       .  S
O578       Cr591   2.069       .  S
C579        C617   1.473       .  S
O580        C588   1.249       .  A
O581       Cr589   1.933       .  S
O581        C582   1.250       .  A
C582       C1083   1.455       .  S
C582        O583   1.274       .  A
O583       Cr590   2.032       .  S
O584       Cr590   2.012       .  S
C585        O586   1.271       .  A
O586       Cr591   2.030       .  S
O587       Cr591   2.015       .  S
O587        C588   1.266       .  A
C588       C1033   1.483       .  S
Cr589       O592   1.760       .  S
Cr590       O592   1.781       .  S
O593       Cr611   1.958       .  S
O593        C601   1.250       .  A
O594       Cr611   1.942       .  S
O594        C595   1.256       .  A
C595        C623   1.476       .  S
C595        O596   1.279       .  A
O596       Cr612   2.073       .  S
O597       Cr612   1.985       .  S
O597        C598   1.267       .  A
C598       C1000   1.494       .  S
C598        O599   1.271       .  A
O599       Cr613   2.005       .  S
O600       Cr613   2.069       .  S
O600        C601   1.271       .  A
O602       Cr611   1.942       .  S
O602        C610   1.253       .  A
O603       Cr611   1.970       .  S
O603        C604   1.251       .  A
C604       C1010   1.481       .  S
C604        O605   1.253       .  A
O605       Cr612   2.002       .  S
O606       Cr612   2.006       .  S
O606        C607   1.266       .  A
C607        O608   1.277       .  A
O608       Cr613   2.030       .  S
O609       Cr613   2.050       .  S
O609        C610   1.278       .  A
C610       C1043   1.497       .  S
Cr611       O614   1.754       .  S
Cr612       O614   1.786       .  S
Cr613       O614   1.763       .  S
O615       Cr633   1.948       .  S
O615        C623   1.258       .  A
O616       Cr633   1.974       .  S
O616        C617   1.252       .  A
O618       Cr634   2.028       .  S
O619       Cr634   1.988       .  S
C620        C990   1.462       .  S
C620        O621   1.262       .  A
O621       Cr635   1.968       .  S
O622       Cr635   2.069       .  S
O622        C623   1.278       .  A
O624       Cr633   1.986       .  S
O624        C632   1.253       .  A
O625        C626   1.253   1_545  A
C626       C1053   1.465       .  S
C626        O627   1.276       .  A
O627       Cr634   2.031       .  S
O628       Cr634   1.985       .  S
O628        C629   1.264       .  A
O630       Cr635   2.037       .  S
O631       Cr635   1.994       .  S
O631        C632   1.263       .  A
C632       C1073   1.475       .  S
Cr633       O636   1.755       .  S
Cr635       O636   1.769       .  S
C637        N638   1.370       .  A
C637        N642   1.365       .  A
C637        C983   1.472       .  S
N638        C639   1.362       .  A
C639        N640   1.339       .  A
C639       C1030   1.473       .  S
N640        C641   1.339       .  A
C641        N642   1.355       .  A
C641       C1013   1.454       .  S
C643        N644   1.363       .  A
C643        N648   1.371       .  A
C643        C970   1.472       .  S
N644        C645   1.352       .  A
C645        N646   1.342       .  A
C645        C963   1.454       .  S
N646        C647   1.343       .  A
C647        N648   1.364       .  A
C647        C950   1.482       .  S
C649        N650   1.363       .  A
C649        N654   1.368       .  A
C649        C940   1.467       .  S
N650        C651   1.353       .  A
C651        N652   1.337       .  A
C651        C920   1.447       .  S
N652        C653   1.339       .  A
C653        N654   1.360       .  A
C653        C930   1.472       .  S
C655        C678   1.511       .  S
C655        C656   1.407       .  A
C655        C660   1.422       .  A
C656        C657   1.418       .  A
C656        H661   1.081       .  S
C657        C700   1.503       .  S
C657        C658   1.413       .  A
C658        C659   1.415       .  A
C658        H662   1.091       .  S
C659        C722   1.513       .  S
C659        C660   1.418       .  A
C660        H663   1.075       .  S
O664      Cr1780   1.963       .  S
O664        C672   1.251       .  A
O665       Cr682   1.951       .  S
O665        C666   1.258   1_655  A
C666        C694   1.472       .  S
C666        O667   1.274       .  A
O667       Cr683   2.054       .  S
O668       Cr683   1.982       .  S
O668        C669   1.266       .  A
C669       C1063   1.470       .  S
C669       O1768   1.268   1_455  A
O670       Cr684   2.008       .  S
O670       C1767   1.269       .  A
O671       Cr684   2.063       .  S
O671        C672   1.267       .  A
C672        C710   1.494       .  S
O673      Cr1780   1.943       .  S
O673        C681   1.253       .  A
O674       Cr682   1.970   1_455  S
O674        C675   1.252       .  A
C675        C960   1.485       .  S
C675        O676   1.257       .  A
O676       Cr683   2.005       .  S
O677       Cr683   1.999       .  S
O677        C678   1.265       .  A
C678        O679   1.277       .  A
O679      Cr1782   2.032   1_455  S
O680       Cr684   2.063       .  S
O680        C681   1.282       .  A
C681        C933   1.504       .  S
Cr682      O1762   1.961       .  S
Cr682      O1771   1.952       .  S
Cr682       O685   1.758   1_655  S
Cr683       O685   1.781       .  S
Cr684      O1777   2.030       .  S
Cr684      O1783   1.768       .  S
O685      Cr1782   1.767   1_455  S
O686        C694   1.256   1_655  A
O687      Cr1253   1.969   1_565  S
O687        C688   1.248       .  A
C688        C716   1.470       .  S
O689       Cr705   2.039       .  S
O690       Cr705   1.994       .  S
O690       C1789   1.265       .  A
C691       C1090   1.473       .  S
C691       O1788   1.265       .  A
C691        O692   1.263       .  A
O692       Cr706   1.979       .  S
O693       Cr706   2.074       .  S
O695       Cr704   1.993       .  S
O695        C703   1.252       .  A
O696      Cr1802   1.913       .  S
O696        C697   1.251       .  A
C697        C923   1.449       .  S
C697        O698   1.276       .  A
O698       Cr705   2.032       .  S
O699      Cr1803   1.978   1_455  S
O699        C700   1.263       .  A
C700        O701   1.276       .  A
O701       Cr706   2.038       .  S
O702       Cr706   2.004       .  S
O702        C703   1.262       .  A
C703        C913   1.482       .  S
Cr704      O1236   1.973   1_455  S
Cr704      O1794   1.921       .  S
Cr704       O707   1.754       .  S
Cr705      O1797   1.980       .  S
Cr705      O1805   1.777       .  S
Cr706       O707   1.772       .  S
O707      Cr1803   1.776   1_455  S
O708       Cr726   1.958       .  S
O708        C716   1.261       .  A
O709       Cr726   1.956       .  S
O709        C710   1.249       .  A
C710        O711   1.262       .  A
O711       Cr727   2.054       .  S
O712       Cr727   2.003       .  S
O712        C713   1.270       .  A
C713        C980   1.484       .  S
C713        O714   1.265       .  A
O714       Cr728   1.976       .  S
O715       Cr728   2.069       .  S
O715        C716   1.281       .  A
O717       Cr726   1.991       .  S
O717        C725   1.250       .  A
O718       Cr726   1.933       .  S
O718        C719   1.255       .  A
C719        C900   1.452       .  S
C719        O720   1.278       .  A
O720       Cr727   2.035       .  S
O721       Cr727   2.005       .  S
O721        C722   1.266       .  A
C722        O723   1.269       .  A
O723       Cr728   2.022       .  S
O724       Cr728   2.014       .  S
O724        C725   1.261       .  A
C725        C953   1.491       .  S
Cr726       O729   1.761       .  S
Cr727       O729   1.785       .  S
Cr728       O729   1.778       .  S
C730        N731   1.370       .  A
C730        N735   1.360       .  A
C730        C890   1.469       .  S
N731        C732   1.364       .  A
C732        N733   1.343       .  A
C732        C910   1.475       .  S
N733        C734   1.340       .  A
C734        N735   1.350       .  A
C734        C903   1.447       .  S
C736        N741   1.370   1_545  A
N737        C738   1.360   1_556  A
C738        C880   1.461       .  S
N739        C740   1.336   1_545  A
C740        N741   1.360   1_554  A
C740        C870   1.461       .  S
C742        N743   1.363       .  A
C742        N747   1.374       .  A
C742       C1003   1.478       .  S
N743        C744   1.352   1_556  A
C744        N745   1.340       .  A
C744        C860   1.455       .  S
N745        C746   1.339       .  A
C746        N747   1.368   1_554  A
C746        C850   1.500       .  S
C748        C815   1.496       .  S
C748        C749   1.414       .  A
C748        C753   1.410       .  A
C749        C750   1.406       .  A
C749        H754   1.082       .  S
C750        C751   1.425       .  A
C751        C752   1.423       .  A
C751        H755   1.087       .  S
C752        C771   1.514       .  S
C752        C753   1.414       .  A
C753        H756   1.084       .  S
O757       Cr775   1.974       .  S
O757        C765   1.254       .  A
O758       Cr775   1.947       .  S
O758        C759   1.256       .  A
C759        C809   1.468       .  S
C759        O760   1.279       .  A
O760      Cr1874   2.069   1_455  S
O761       Cr776   1.978       .  S
O761       C1860   1.265       .  A
C762       C2041   1.476       .  S
C762       O1859   1.265       .  A
C762        O763   1.270       .  A
O763      Cr1875   2.004       .  S
O764      Cr1875   2.058   1_455  S
O764        C765   1.265       .  A
C765        C781   1.502       .  S
O766       Cr775   1.933       .  S
O766       C1872   1.256   1_455  A
O767       Cr775   1.997       .  S
O767       C1866   1.254   1_455  A
C768        C883   1.474       .  S
C768       O1865   1.253       .  A
C768        O769   1.260       .  A
O769       Cr776   1.998       .  S
O770       Cr776   2.030       .  S
O770        C771   1.271       .  A
C771        O772   1.269       .  A
O772       Cr777   2.006       .  S
O773       Cr777   2.037       .  S
O773        C774   1.276       .  A
C774        C863   1.465       .  S
C774       O1864   1.259       .  A
Cr775       O778   1.763       .  S
Cr776      O1858   2.066       .  S
Cr776      O1876   1.783       .  S
Cr777      O1861   1.997       .  S
Cr777      O1862   2.057       .  S
Cr777      O1876   1.782       .  S
O778      Cr1874   1.784   1_455  S
O778      Cr1875   1.777   1_455  S
O779       Cr797   1.943       .  S
O779        C787   1.254       .  A
O780       Cr797   1.968       .  S
O780        C781   1.254       .  A
C781        O782   1.271       .  A
O782       Cr798   2.068       .  S
O783       Cr798   2.010       .  S
O783        C784   1.270       .  A
C784        C973   1.477       .  S
C784        O785   1.263       .  A
O785       Cr799   1.974       .  S
O786       Cr799   2.057       .  S
O786        C787   1.272       .  A
C787        C803   1.471       .  S
O788       Cr797   1.994       .  S
O788        C796   1.258       .  A
O789       Cr797   1.947       .  S
O789        C790   1.257       .  A
C790        C843   1.503       .  S
C790        O791   1.278       .  A
O791       Cr798   2.046       .  S
O792       Cr798   2.034       .  S
O792        C793   1.277       .  A
C793        O794   1.267       .  A
O794       Cr799   2.011       .  S
O795       Cr799   1.986       .  S
O795        C796   1.255       .  A
C796        C873   1.475       .  S
Cr797       O800   1.756       .  S
Cr798       O800   1.768       .  S
Cr799       O800   1.785       .  S
O801       Cr819   1.971       .  S
O801        C809   1.250       .  A
O802       Cr819   1.940       .  S
O802        C803   1.253       .  A
C803        O804   1.278       .  A
O804       Cr820   2.074       .  S
O805       Cr820   1.984       .  S
O805        C806   1.266       .  A
C806        C893   1.472       .  S
C806        O807   1.268       .  A
O807       Cr821   2.002       .  S
O808       Cr821   2.021       .  S
O808        C809   1.255       .  A
O810       Cr819   1.918       .  S
O810        C818   1.250       .  A
O811       Cr819   2.001       .  S
O811        C812   1.256       .  A
C812        C853   1.494       .  S
C812        O813   1.264       .  A
O813       Cr820   2.009       .  S
O814       Cr820   2.031       .  S
O814        C815   1.272       .  A
C815        O816   1.260       .  A
O816       Cr821   1.970       .  S
O817       Cr821   2.046       .  S
O817        C818   1.281       .  A
C818        C833   1.454       .  S
Cr819       O822   1.754       .  S
Cr820       O822   1.773       .  S
Cr821       O822   1.774       .  S
C823        N828   1.366   1_545  A
N824        C825   1.352   1_556  A
C825        C830   1.454       .  S
N826        C827   1.342   1_545  A
C827        N828   1.359   1_554  A
C827        C840   1.463       .  S
C829        C830   1.401       .  A
C829        C834   1.404       .  A
C829       Br836   1.923       .  S
C830        C831   1.404       .  A
C831        C832   1.395       .  A
C831       Br838   1.930       .  S
C832        C833   1.405       .  A
C832       Br837   1.924       .  S
C833        C834   1.414       .  A
C834       Br835   1.931       .  S
C839        C840   1.404       .  A
C839        C844   1.407       .  A
C839       Br846   1.930       .  S
C840        C841   1.401       .  A
C841        C842   1.406       .  A
C841       Br848   1.934   1_554  S
C842        C843   1.428       .  A
C842       Br847   1.932       .  S
C843        C844   1.421       .  A
C844       Br845   1.934       .  S
C849        C850   1.412       .  A
C849        C854   1.415       .  A
C849       Br856   1.931       .  S
C850        C851   1.424       .  A
C851        C852   1.407       .  A
C851       Br858   1.935       .  S
C852        C853   1.407       .  A
C852       Br857   1.934       .  S
C853        C854   1.424       .  A
C854       Br855   1.929       .  S
C859        C860   1.408       .  A
C859        C864   1.396       .  A
C859       Br866   1.932       .  S
C860        C861   1.406       .  A
C861        C862   1.409       .  A
C861       Br868   1.927       .  S
C862        C863   1.414       .  A
C862      Br1965   1.927       .  S
C863        C864   1.402       .  A
C864       Br865   1.929       .  S
Br867      C1960   1.930       .  S
C869        C870   1.408       .  A
C869        C874   1.405       .  A
C869       Br876   1.930       .  S
C870        C871   1.413       .  A
C871        C872   1.406       .  A
C871       Br878   1.929   1_565  S
C872        C873   1.410       .  A
C872       Br877   1.932       .  S
C873        C874   1.403       .  A
C874       Br875   1.917       .  S
C879        C880   1.412       .  A
C879        C884   1.413       .  A
C879       Br886   1.926       .  S
C880        C881   1.404       .  A
C881        C882   1.398       .  A
C881       Br888   1.930       .  S
C882        C883   1.403       .  A
C882       Br887   1.914       .  S
C883        C884   1.410       .  A
C884      Br1983   1.927       .  S
Br885      C1982   1.927       .  S
C889        C890   1.407       .  A
C889        C894   1.407       .  A
C889       Br896   1.930       .  S
C890        C891   1.409       .  A
C891        C892   1.407       .  A
C891       Br898   1.931       .  S
C892        C893   1.409       .  A
C892       Br897   1.929       .  S
C893        C894   1.410       .  A
C894       Br895   1.929       .  S
C899        C900   1.406       .  A
C899        C904   1.400       .  A
C899       Br906   1.931       .  S
C900        C901   1.406       .  A
C901        C902   1.400       .  A
C901       Br908   1.923       .  S
C902        C903   1.404       .  A
C902       Br907   1.930       .  S
C903        C904   1.406       .  A
C904       Br905   1.929       .  S
C909        C910   1.405       .  A
C909        C914   1.409       .  A
C909       Br916   1.929       .  S
C910        C911   1.414       .  A
C911        C912   1.406       .  A
C911       Br918   1.931       .  S
C912        C913   1.406       .  A
C912       Br917   1.930       .  S
C913        C914   1.420       .  A
C914       Br915   1.926       .  S
C919        C920   1.408       .  A
C919        C924   1.400       .  A
C919       Br926   1.929       .  S
C920        C921   1.406       .  A
C921        C922   1.398       .  A
C921       Br928   1.926       .  S
C922        C923   1.408       .  A
C922      Br2025   1.935       .  S
C923        C924   1.401       .  A
C924       Br925   1.922       .  S
Br927      C2020   1.935       .  S
C929        C930   1.401       .  A
C929        C934   1.407       .  A
C929      Br2034   1.933       .  S
C930        C931   1.411       .  A
C931        C932   1.406       .  A
C931       Br938   1.934       .  S
C932        C933   1.417       .  A
C932       Br937   1.932       .  S
C933        C934   1.432       .  A
C934      Br2033   1.932       .  S
Br935      C2032   1.934       .  S
Br936      C2027   1.927       .  S
C939        C940   1.405       .  A
C939        C944   1.405       .  A
C939       Br946   1.931       .  S
C940        C941   1.409       .  A
C941       C2040   1.405       .  A
C941      Br2046   1.926       .  S
C942       C2039   1.410   1_455  A
C942       C2041   1.408   1_455  A
C942       Br947   1.928       .  S
C943       C1860   1.471       .  S
C943       C2040   1.405       .  A
C943        C944   1.412       .  A
C944       Br945   1.927       .  S
Br948      C2039   1.927   1_455  S
C949        C950   1.416       .  A
C949        C954   1.405       .  A
C949       Br956   1.933       .  S
C950        C951   1.405       .  A
C951        C952   1.413       .  A
C951       Br958   1.929       .  S
C952        C953   1.424       .  A
C952       Br957   1.928       .  S
C953        C954   1.406       .  A
C954       Br955   1.929       .  S
C959        C960   1.419       .  A
C959        C964   1.405       .  A
C959       Br966   1.924       .  S
C960        C961   1.415       .  A
C961        C962   1.405       .  A
C961       Br968   1.916       .  S
C962        C963   1.401       .  A
C963        C964   1.399       .  A
C964       Br965   1.926       .  S
C969        C970   1.409       .  A
C969        C974   1.408       .  A
C969       Br976   1.932       .  S
C970        C971   1.408       .  A
C971        C972   1.408       .  A
C971       Br978   1.930   1_565  S
C972        C973   1.413       .  A
C972       Br977   1.932       .  S
C973        C974   1.411       .  A
C974       Br975   1.930       .  S
C979        C980   1.417       .  A
C979        C984   1.410       .  A
C979       Br986   1.933       .  S
C980        C981   1.415       .  A
C981        C982   1.407       .  A
C981       Br988   1.932       .  S
C982        C983   1.406       .  A
C982       Br987   1.931       .  S
C983        C984   1.407       .  A
C984       Br985   1.931       .  S
C989        C990   1.408       .  A
C990        C991   1.408       .  A
C991        C992   1.402       .  A
C991       Br998   1.930       .  S
C992        C993   1.409       .  A
C992       Br997   1.933       .  S
C994       Br995   1.928       .  S
C999       C1000   1.418       .  A
C999       C1004   1.406       .  A
C999      Br1006   1.936       .  S
C1000      C1001   1.417       .  A
C1001      C1002   1.414       .  A
C1001     Br1008   1.925       .  S
C1002      C1003   1.409       .  A
C1002     Br1007   1.930       .  S
C1003      C1004   1.406       .  A
C1004     Br1005   1.929       .  S
C1009      C1010   1.417       .  A
C1009      C1014   1.408       .  A
C1009     Br1016   1.925       .  S
C1010      C1011   1.406       .  A
C1011      C1012   1.402       .  A
C1011     Br1018   1.912       .  S
C1012      C1013   1.404       .  A
C1012     Br1017   1.929       .  S
C1013      C1014   1.404       .  A
C1014     Br1015   1.930       .  S
C1019      C1020   1.411       .  A
C1019      C1024   1.411       .  A
C1019     Br1026   1.927       .  S
C1021     Br1028   1.935       .  S
C1022      C1023   1.412       .  A
C1023      C1024   1.409       .  A
C1024     Br1025   1.929       .  S
C1029      C1030   1.402       .  A
C1029      C1034   1.407       .  A
C1029     Br1036   1.929       .  S
C1030      C1031   1.415       .  A
C1031      C1032   1.404       .  A
C1031     Br1038   1.930       .  S
C1032      C1033   1.405       .  A
C1032     Br1037   1.930       .  S
C1033      C1034   1.425       .  A
C1034     Br1035   1.929   1_565  S
C1039      C1040   1.402       .  A
C1039      C1044   1.407       .  A
C1039     Br1046   1.930       .  S
C1040      C1658   1.474       .  S
C1040      C1041   1.408       .  A
C1041      C1042   1.403       .  A
C1041     Br2146   1.930       .  S
C1042      C1043   1.418       .  A
C1042     Br1047   1.934       .  S
C1043      C1044   1.431       .  A
C1044     Br1045   1.938       .  S
Br1048     C2139   1.931   1_455  S
C1049      C1050   1.407       .  A
C1049      C1054   1.401       .  A
C1049     Br1056   1.930       .  S
C1050      C1051   1.405       .  A
C1051      C1052   1.403       .  A
C1051     Br1058   1.931       .  S
C1052      C1053   1.413       .  A
C1052     Br1057   1.932       .  S
C1053      C1054   1.404       .  A
C1054     Br1055   1.920       .  S
C1059      C1060   1.408       .  A
C1059      C1064   1.408   1_455  A
C1059     Br1066   1.930   1_455  S
C1060      C1061   1.404       .  A
C1061      C1062   1.403       .  A
C1061     Br2166   1.933       .  S
C1062      C1063   1.411       .  A
C1062     Br2165   1.928       .  S
C1063      C1064   1.409   1_455  A
C1064     Br1065   1.928       .  S
Br1067     C2160   1.928       .  S
Br1068     C2159   1.932       .  S
C1069      C1070   1.414       .  A
C1069      C1074   1.401       .  A
C1069     Br1076   1.929       .  S
C1070      C1071   1.405       .  A
C1071      C1072   1.407       .  A
C1071     Br1078   1.930       .  S
C1072      C1073   1.423       .  A
C1072     Br1077   1.931       .  S
C1073      C1074   1.406       .  A
C1074     Br1075   1.932       .  S
C1079      C2178   1.404       .  A
C1079      C2182   1.402       .  A
C1079     Br1086   1.927       .  S
C1080      C1652   1.445       .  S
C1080      C2177   1.404       .  A
C1080      C1081   1.405       .  A
C1081      C1082   1.400       .  A
C1081     Br1088   1.931       .  S
C1082      C1083   1.404       .  A
C1082     Br1087   1.920       .  S
C1083      C1084   1.407       .  A
C1084      C2177   1.400       .  A
C1084     Br1085   1.931       .  S
C1089      C1090   1.414       .  A
C1089      C1094   1.406       .  A
C1089     Br1096   1.930       .  S
C1090      C1091   1.408       .  A
C1091      C1092   1.405       .  A
C1091     Br2196   1.928       .  S
C1092      C1093   1.407       .  A
C1092     Br2195   1.929       .  S
C1093      C1094   1.405       .  A
C1094     Br1095   1.933       .  S
Br1097     C2190   1.929       .  S
Br1098     C2189   1.929       .  S
C1099      N1100   1.369       .  A
C1099      N1104   1.360       .  A
C1099      C1642   1.469       .  S
N1100      C1101   1.364       .  A
C1101      N1102   1.344       .  A
C1101      C1619   1.483       .  S
N1102      C1103   1.341       .  A
C1103      N1104   1.349       .  A
C1105      N1106   1.363       .  A
C1105      N1110   1.363       .  A
C1105      C1609   1.458       .  S
N1106      C1107   1.354       .  A
C1107      N1108   1.340       .  A
C1107      C1599   1.452       .  S
N1108      C1109   1.343       .  A
C1109      N1110   1.355       .  A
C1111      C1134   1.516       .  S
C1111      C1112   1.416       .  A
C1111      C1116   1.421       .  A
C1112      H1117   1.073       .  S
C1113      C1178   1.498       .  S
C1114      C1115   1.410       .  A
C1114      H1118   1.086       .  S
C1115      C1156   1.513       .  S
C1115      C1116   1.423       .  A
C1116      H1119   1.093       .  S
O1120     Cr1138   1.958       .  S
O1120      C1128   1.261       .  A
O1121     Cr1138   1.958       .  S
O1121      C1122   1.252       .  A
C1122      C1150   1.493       .  S
C1122      O1123   1.264       .  A
O1123     Cr1139   2.057       .  S
O1124     Cr1139   1.999       .  S
O1124      C1125   1.267       .  A
C1125      C1572   1.482       .  S
C1125      O1675   1.269   1_545  A
O1126     Cr1140   1.987       .  S
O1126      C1674   1.268       .  A
O1127     Cr1140   2.068       .  S
O1127      C1677   1.280       .  A
C1128      C1166   1.477   1_545  S
C1128      O1676   1.279   1_545  A
O1129     Cr1687   1.976       .  S
O1129      C1137   1.246       .  A
O1130     Cr1138   1.929       .  S
O1130      C1131   1.249       .  A
C1131      C1632   1.458       .  S
C1131      O1132   1.276       .  A
O1132     Cr1139   2.040       .  S
O1133     Cr1139   2.009       .  S
O1133      C1683   1.268   1_545  A
C1134      O1682   1.268       .  A
C1134      O1135   1.271       .  A
O1135     Cr1140   2.028       .  S
O1136     Cr1140   2.007       .  S
O1136      C1137   1.263       .  A
C1137      C1582   1.474       .  S
Cr1138     O1678   1.979   1_545  S
Cr1138     O1141   1.761       .  S
Cr1139     O1141   1.785       .  S
Cr1140     O1690   1.774       .  S
O1141     Cr1689   1.775   1_545  S
O1142     Cr1160   1.955       .  S
O1142      C1150   1.251       .  A
O1143     Cr1160   1.941       .  S
O1143      C1144   1.253       .  A
C1144      C1172   1.472       .  S
C1144      O1145   1.277       .  A
O1145     Cr1161   2.069       .  S
O1146     Cr1161   1.977       .  S
O1146      C1147   1.265       .  A
C1147      C1549   1.476       .  S
C1147      O1148   1.270       .  A
O1148     Cr1162   2.002       .  S
O1149     Cr1162   2.066       .  S
O1149      C1150   1.270       .  A
O1151     Cr1160   1.935       .  S
O1151      C1159   1.252       .  A
O1152     Cr1160   1.978       .  S
O1152      C1153   1.254       .  A
C1153      C1559   1.478       .  S
C1153      O1154   1.254       .  A
O1154     Cr1161   1.995       .  S
O1155     Cr1161   2.013       .  S
O1155      C1156   1.268       .  A
C1156      O1157   1.275       .  A
O1157     Cr1162   2.026       .  S
O1158     Cr1162   2.045       .  S
O1158      C1159   1.278       .  A
C1159      C1592   1.492       .  S
Cr1160     O1163   1.752       .  S
Cr1161     O1163   1.782       .  S
Cr1162     O1163   1.764       .  S
O1164     Cr1182   1.948       .  S
O1164      C1172   1.257       .  A
O1165     Cr1182   1.976       .  S
O1165      C1166   1.253   1_545  A
C1166      O1716   1.259       .  A
O1167     Cr1183   2.031       .  S
O1167      C1715   1.259       .  A
O1168     Cr1183   1.985       .  S
O1168      C1718   1.263       .  A
C1169      C1539   1.459       .  S
C1169      O1717   1.263   1_545  A
C1169      O1170   1.262       .  A
O1170     Cr1184   1.967       .  S
O1171     Cr1184   2.065       .  S
O1171      C1172   1.276       .  A
O1173     Cr1182   1.988       .  S
O1173      C1181   1.253       .  A
O1174     Cr1731   1.937       .  S
O1174      C1175   1.252       .  A
C1175      C1602   1.460       .  S
C1175      O1176   1.275       .  A
O1176     Cr1183   2.027       .  S
O1177     Cr1183   1.984       .  S
O1177      C1178   1.264       .  A
C1178      O1728   1.272       .  A
O1179     Cr1184   2.030       .  S
O1179      C1727   1.272   1_545  A
O1180     Cr1184   1.993       .  S
O1180      C1181   1.263       .  A
C1181      C1622   1.477       .  S
Cr1182     O1723   1.943       .  S
Cr1182     O1185   1.754       .  S
Cr1183     O1734   1.774       .  S
Cr1184     O1185   1.769       .  S
O1185     Cr1732   1.772   1_545  S
C1186      N1187   1.367       .  A
C1186      N1191   1.363       .  A
C1186      C1532   1.462       .  S
N1187      C1188   1.359       .  A
C1188      N1189   1.340       .  A
C1188      C1579   1.465       .  S
N1189      C1190   1.339       .  A
C1190      N1191   1.353       .  A
C1190      C1562   1.452       .  S
C1192      N1193   1.363       .  A
C1192      N1197   1.373       .  A
C1192      C1519   1.481       .  S
N1193      C1194   1.351       .  A
C1194      N1195   1.342       .  A
C1194      C1512   1.453       .  S
N1195      C1196   1.342       .  A
C1196      N1197   1.366       .  A
C1196      C1499   1.486       .  S
C1198      N1199   1.364       .  A
C1198      N1203   1.369       .  A
C1198      C1489   1.469       .  S
N1199      C1200   1.354       .  A
C1200      N1201   1.337       .  A
C1200      C1469   1.453       .  S
N1201      C1202   1.341       .  A
C1202      N1203   1.362       .  A
C1202      C1479   1.479       .  S
C1204      C1227   1.510       .  S
C1204      C1205   1.405       .  A
C1204      C1209   1.423       .  A
C1205      C1206   1.416       .  A
C1205      H1210   1.082       .  S
C1206      C1249   1.503       .  S
C1206      C1207   1.414       .  A
C1207      C1208   1.417       .  A
C1207      H1211   1.091       .  S
C1208      C1271   1.516       .  S
C1208      C1209   1.420       .  A
C1209      H1212   1.075       .  S
O1213      C1221   1.252       .  A
O1214     Cr1231   1.952       .  S
O1214      C1215   1.258       .  A
C1215      C1243   1.472       .  S
C1215      O1216   1.273       .  A
O1216     Cr1232   2.055       .  S
O1217     Cr1232   1.969       .  S
O1217      C1218   1.263       .  A
C1218      C1612   1.461       .  S
O1219     Cr1233   2.003   1_455  S
O1220     Cr1233   2.064       .  S
O1220      C1221   1.269       .  A
C1221      C1259   1.495       .  S
O1222      C1230   1.254       .  A
O1223     Cr1231   1.968       .  S
O1223      C1224   1.252       .  A
C1224      C1509   1.485       .  S
C1224      O1225   1.256       .  A
O1225     Cr1232   2.003       .  S
O1226     Cr1232   1.999       .  S
O1226      C1227   1.264       .  A
C1227      O1228   1.278       .  A
O1229     Cr1233   2.050       .  S
O1229      C1230   1.279       .  A
C1230      C1482   1.504       .  S
Cr1231     O1234   1.752       .  S
Cr1232     O1234   1.781       .  S
O1235     Cr1802   1.937       .  S
O1235      C1243   1.256       .  A
O1236      C1237   1.249       .  A
C1237      C1265   1.476       .  S
C1237      O1787   1.262       .  A
O1238     Cr1254   2.039       .  S
O1238      C1786   1.262   1_545  A
O1239     Cr1254   1.996   1_455  S
C1240      C1639   1.477       .  S
C1240      O1241   1.266       .  A
O1241     Cr1255   1.987       .  S
O1242     Cr1255   2.070       .  S
O1242      C1792   1.282   1_545  A
C1243      O1791   1.282       .  A
O1244     Cr1253   1.995       .  S
O1244      C1252   1.253       .  A
O1245      C1246   1.253   1_455  A
C1246      C1472   1.457       .  S
C1246      O1247   1.276       .  A
O1247     Cr1254   2.034       .  S
O1248      C1249   1.263       .  A
C1249      O1250   1.275       .  A
O1250     Cr1255   2.037       .  S
O1251     Cr1255   2.010       .  S
O1251      C1252   1.264       .  A
C1252      C1462   1.486       .  S
Cr1253     O1784   1.941   1_545  S
Cr1253     O1256   1.757       .  S
Cr1255     O1256   1.770       .  S
O1257     Cr1275   1.961       .  S
O1257      C1265   1.262       .  A
O1258     Cr1275   1.963       .  S
O1258      C1259   1.251       .  A
C1259      O1260   1.262       .  A
O1260     Cr1276   2.054       .  S
O1261     Cr1276   2.000       .  S
O1261      C1262   1.269       .  A
C1262      C1529   1.476       .  S
C1262      O1263   1.263       .  A
O1263     Cr1277   1.966       .  S
O1264     Cr1277   2.074       .  S
O1264      C1265   1.283       .  A
O1266     Cr1275   1.990       .  S
O1266      C1274   1.249       .  A
O1267     Cr1275   1.938       .  S
O1267      C1268   1.255       .  A
C1268      C1449   1.457       .  S
C1268      O1269   1.279       .  A
O1269     Cr1276   2.038       .  S
O1270     Cr1276   2.005       .  S
O1270      C1271   1.267       .  A
C1271      O1272   1.271       .  A
O1272     Cr1277   2.031       .  S
O1273     Cr1277   2.007       .  S
O1273      C1274   1.260       .  A
C1274      C1502   1.487       .  S
Cr1275     O1278   1.760       .  S
Cr1276     O1278   1.784       .  S
Cr1277     O1278   1.776       .  S
C1279      N1280   1.373       .  A
C1279      N1284   1.363       .  A
C1279      C1439   1.482       .  S
N1280      C1281   1.367       .  A
C1281      N1282   1.343       .  A
C1281      C1459   1.479       .  S
N1282      C1283   1.341       .  A
C1283      N1284   1.353       .  A
C1283      C1452   1.452       .  S
C1285      N1835   1.372       .  A
C1285      N1290   1.367       .  A
C1285      C2118   1.480       .  S
N1286      C1834   1.373       .  A
N1286      C1287   1.367   1_556  A
C1287      N1837   1.339   1_545  A
C1287      C1429   1.471       .  S
N1288      C1836   1.339       .  A
N1288      C1289   1.337       .  A
C1289      N1290   1.358   1_554  A
C1289      C1419   1.461       .  S
C1291      N1292   1.364       .  A
C1291      N1296   1.369       .  A
C1291      C1552   1.467       .  S
N1292      C1293   1.352   1_556  A
C1293      N1294   1.342       .  A
C1293      C1409   1.458       .  S
N1294      C1295   1.339       .  A
C1295      N1296   1.362   1_554  A
C1295      C1399   1.488       .  S
C1297      C1364   1.497       .  S
C1297      C1298   1.414       .  A
C1297      C1302   1.411       .  A
C1298      C1299   1.408       .  A
C1298      H1303   1.082       .  S
C1299      C1891   1.511   1_545  S
C1299      C1300   1.422       .  A
C1300      C1301   1.421       .  A
C1300      H1304   1.087       .  S
C1301      C1320   1.512       .  S
C1301      C1302   1.412       .  A
C1302      H1305   1.083       .  S
O1306     Cr1324   1.961       .  S
O1306      C1314   1.253       .  A
O1307     Cr1324   1.957       .  S
O1307      C1308   1.258       .  A
C1308      C1358   1.474       .  S
C1308      O1309   1.278       .  A
O1310     Cr1325   1.984       .  S
C1311      O1312   1.265       .  A
O1313      C1314   1.265       .  A
C1314      C1330   1.499       .  S
O1315     Cr1324   1.945       .  S
O1316     Cr1324   1.990       .  S
C1317      C1432   1.484       .  S
C1317      O1318   1.259       .  A
O1318     Cr1325   1.999       .  S
O1319     Cr1325   2.015       .  S
O1319      C1320   1.267       .  A
C1320      O1321   1.269       .  A
O1321     Cr1326   2.011       .  S
O1322     Cr1326   2.039       .  S
O1322      C1323   1.278       .  A
C1323      C1412   1.465       .  S
Cr1324     O1327   1.765       .  S
O1328     Cr1346   1.941       .  S
O1328      C1336   1.254       .  A
O1329     Cr1346   1.959       .  S
O1329      C1330   1.252       .  A
C1330      O1331   1.271       .  A
O1331     Cr1347   2.071       .  S
O1332     Cr1347   2.012       .  S
O1332      C1333   1.270       .  A
C1333      C1522   1.477       .  S
C1333      O1334   1.265       .  A
O1334     Cr1348   1.981       .  S
O1335     Cr1348   2.058       .  S
O1335      C1336   1.274       .  A
C1336      C1352   1.467       .  S
O1337     Cr1346   1.991       .  S
O1337      C1345   1.255       .  A
O1338     Cr1346   1.942       .  S
O1338      C1339   1.256       .  A
C1339      C1392   1.501       .  S
C1339      O1340   1.279       .  A
O1340     Cr1347   2.050       .  S
O1341     Cr1347   2.025       .  S
O1341      C1342   1.275       .  A
C1342      C1848   1.507       .  S
C1342      O1343   1.266       .  A
O1343     Cr1348   2.005       .  S
O1344     Cr1348   1.996       .  S
O1344      C1345   1.257       .  A
C1345      C1422   1.475       .  S
Cr1346     O1349   1.751       .  S
Cr1347     O1349   1.768       .  S
Cr1348     O1349   1.781       .  S
O1350     Cr1368   1.974       .  S
O1350      C1358   1.250       .  A
O1351     Cr1368   1.940       .  S
O1351      C1352   1.255       .  A
C1352      O1353   1.277       .  A
O1353     Cr1369   2.064       .  S
O1354     Cr1369   1.983       .  S
O1354      C1355   1.265       .  A
C1355      C1442   1.481       .  S
C1355      O1356   1.270       .  A
O1356     Cr1370   2.011       .  S
O1357     Cr1370   2.028       .  S
O1357      C1358   1.257       .  A
O1359     Cr1368   1.920       .  S
O1359      C1367   1.249       .  A
O1360     Cr1368   1.999       .  S
O1360      C1361   1.256       .  A
C1361      C1402   1.491       .  S
C1361      O1362   1.263       .  A
O1362     Cr1369   2.006       .  S
O1363     Cr1369   2.024       .  S
O1363      C1364   1.271       .  A
C1364      O1365   1.262       .  A
O1365     Cr1370   1.979       .  S
O1366     Cr1370   2.053       .  S
O1366      C1367   1.283       .  A
C1367      C1382   1.460       .  S
Cr1368     O1371   1.759       .  S
Cr1369     O1371   1.772       .  S
Cr1370     O1371   1.774       .  S
C1372      N1922   1.362       .  A
C1372      N1377   1.365       .  A
C1372      C2091   1.465       .  S
N1373      C1921   1.361       .  A
N1373      C1374   1.352   1_556  A
C1374      N1924   1.344       .  A
C1374      C1379   1.456       .  S
N1375      C1923   1.343       .  A
N1375      C1376   1.343       .  A
C1376      N1377   1.358   1_554  A
C1376      C1389   1.463       .  S
C1378      C1379   1.402       .  A
C1378      C1383   1.406       .  A
C1378     Br1385   1.926   1_554  S
C1379      C1380   1.404       .  A
C1380      C1381   1.396       .  A
C1380     Br1387   1.930       .  S
C1381      C1382   1.407       .  A
C1381     Br1386   1.924       .  S
C1382      C1383   1.414       .  A
C1383     Br1384   1.928       .  S
C1388      C1389   1.404       .  A
C1388      C1393   1.406       .  A
C1388     Br1395   1.931       .  S
C1389      C1390   1.400       .  A
C1390      C1391   1.406       .  A
C1390     Br1397   1.931   1_554  S
C1391      C1392   1.430       .  A
C1391     Br1396   1.936       .  S
C1392      C1393   1.420       .  A
C1393     Br1394   1.933       .  S
C1398      C1399   1.410       .  A
C1398      C1403   1.413       .  A
C1398     Br1405   1.933   1_554  S
C1399      C1400   1.417       .  A
C1400      C1401   1.404       .  A
C1400     Br1407   1.934       .  S
C1401      C1402   1.408       .  A
C1401     Br1406   1.933       .  S
C1402      C1403   1.424       .  A
C1403     Br1404   1.929       .  S
C1408      C1409   1.406       .  A
C1408      C1413   1.396       .  A
C1408     Br1415   1.929       .  S
C1409      C1410   1.403       .  A
C1410      C1411   1.409   1_655  A
C1410     Br1417   1.924   1_654  S
C1411      C1412   1.415   1_455  A
C1412      C1413   1.403       .  A
C1413     Br1414   1.927       .  S
C1418      C1419   1.407       .  A
C1418      C1423   1.407       .  A
C1418     Br1425   1.928       .  S
C1419      C1420   1.409       .  A
C1420      C1421   1.406       .  A
C1420     Br1427   1.929       .  S
C1421      C1422   1.410       .  A
C1421     Br1426   1.930       .  S
C1422      C1423   1.405       .  A
C1423     Br1424   1.917       .  S
C1428      C1429   1.418       .  A
C1428      C1433   1.416       .  A
C1428     Br1435   1.928       .  S
C1429      C1430   1.407       .  A
C1430      C1431   1.402       .  A
C1430     Br1437   1.929       .  S
C1431      C1432   1.404       .  A
C1431     Br1436   1.915       .  S
C1432      C1433   1.409       .  A
C1438      C1439   1.410       .  A
C1438      C1443   1.412       .  A
C1438     Br1445   1.928       .  S
C1439      C1440   1.413       .  A
C1440      C1441   1.409       .  A
C1440     Br1447   1.930       .  S
C1441      C1442   1.408       .  A
C1441     Br1446   1.928       .  S
C1442      C1443   1.411       .  A
C1443     Br1444   1.930       .  S
C1448      C1449   1.406       .  A
C1448      C1453   1.401       .  A
C1448     Br1455   1.931       .  S
C1449      C1450   1.407       .  A
C1450      C1451   1.402       .  A
C1450     Br1457   1.923       .  S
C1451      C1452   1.403       .  A
C1451     Br1456   1.927       .  S
C1452      C1453   1.407       .  A
C1453     Br1454   1.928       .  S
C1458      C1459   1.405       .  A
C1458      C1463   1.411       .  A
C1458     Br1465   1.930       .  S
C1459      C1460   1.415       .  A
C1460      C1461   1.407       .  A
C1460     Br1467   1.926       .  S
C1461      C1462   1.406       .  A
C1461     Br1466   1.930       .  S
C1462      C1463   1.421       .  A
C1463     Br1464   1.923       .  S
C1468      C1469   1.410       .  A
C1468      C1473   1.402       .  A
C1468     Br1475   1.929       .  S
C1469      C1470   1.407       .  A
C1470      C1471   1.400   1_655  A
C1470     Br1477   1.930   1_655  S
C1471      C1472   1.409   1_455  A
C1472      C1473   1.403       .  A
C1473     Br1474   1.925       .  S
C1478      C1479   1.402       .  A
C1478      C1483   1.411       .  A
C1479      C1480   1.410       .  A
C1480      C1481   1.404       .  A
C1480     Br1487   1.932       .  S
C1481      C1482   1.420       .  A
C1481     Br1486   1.935       .  S
C1482      C1483   1.433       .  A
C1488      C1489   1.405       .  A
C1488      C1493   1.405       .  A
C1488     Br1495   1.932       .  S
C1489      C1490   1.409       .  A
C1491     Br1496   1.927       .  S
C1492      C1493   1.412       .  A
C1493     Br1494   1.926       .  S
C1498      C1499   1.419       .  A
C1498      C1503   1.405       .  A
C1498     Br1505   1.934       .  S
C1499      C1500   1.407       .  A
C1500      C1501   1.412       .  A
C1500     Br1507   1.929       .  S
C1501      C1502   1.422       .  A
C1501     Br1506   1.930       .  S
C1502      C1503   1.406       .  A
C1503     Br1504   1.932       .  S
C1508      C1509   1.420       .  A
C1508      C1513   1.405       .  A
C1508     Br1515   1.923       .  S
C1509      C1510   1.414       .  A
C1510      C1511   1.404       .  A
C1510     Br1517   1.912       .  S
C1511      C1512   1.398       .  A
C1511     Br2065   1.928       .  S
C1512      C1513   1.399       .  A
C1513     Br1514   1.926       .  S
Br1516     C2060   1.930       .  S
C1518      C1519   1.415       .  A
C1518      C1523   1.408       .  A
C1518     Br1525   1.932       .  S
C1519      C1520   1.410       .  A
C1520      C1521   1.410       .  A
C1520     Br1527   1.931       .  S
C1521      C1522   1.411       .  A
C1521     Br1526   1.930       .  S
C1522      C1523   1.406       .  A
C1523     Br1524   1.929       .  S
C1528      C1529   1.416       .  A
C1528      C1533   1.406       .  A
C1528     Br1535   1.933       .  S
C1529      C1530   1.414       .  A
C1530      C1531   1.404       .  A
C1530     Br1537   1.933       .  S
C1531      C1532   1.405       .  A
C1531     Br1536   1.932       .  S
C1532      C1533   1.405       .  A
C1533     Br1534   1.931       .  S
C1538      C1539   1.407   1_565  A
C1538      C2092   1.403       .  A
C1538     Br2094   1.931       .  S
C1539      C1540   1.407       .  A
C1540      C1541   1.401       .  A
C1540     Br1547   1.929       .  S
C1541      C1542   1.406       .  A
C1541     Br1546   1.931       .  S
C1542      C1921   1.458       .  S
C1542      C2092   1.407   1_545  A
C1543      C2087   1.405       .  A
C1543      C2091   1.410       .  A
C1543     Br1544   1.932       .  S
Br1545     C2087   1.933       .  S
C1548      C1549   1.413       .  A
C1548      C1553   1.404       .  A
C1548     Br1555   1.932       .  S
C1549      C1550   1.410       .  A
C1550      C1551   1.408       .  A
C1550     Br1557   1.923       .  S
C1551      C1552   1.407       .  A
C1551     Br1556   1.931       .  S
C1552      C1553   1.404       .  A
C1553     Br1554   1.927       .  S
C1558      C1559   1.417       .  A
C1558      C1563   1.405       .  A
C1558     Br1565   1.924       .  S
C1559      C1560   1.405       .  A
C1560      C1561   1.402       .  A
C1560     Br1567   1.912       .  S
C1561      C1562   1.404       .  A
C1561     Br1566   1.930       .  S
C1562      C1563   1.403       .  A
C1563     Br1564   1.931       .  S
C1568      C1569   1.413       .  A
C1568      C1573   1.414       .  A
C1568     Br1575   1.925       .  S
C1569      C1834   1.484       .  S
C1569      C2119   1.409   1_545  A
C1570      C2118   1.410       .  A
C1570      C2120   1.408       .  A
C1570     Br1577   1.932       .  S
C1571      C2119   1.409       .  A
C1571      C1572   1.412   1_565  A
C1571     Br2125   1.929       .  S
C1572      C1573   1.408       .  A
C1573     Br1574   1.928       .  S
Br1576     C2120   1.929       .  S
C1578      C1579   1.403       .  A
C1578      C1583   1.405       .  A
C1578     Br1585   1.930       .  S
C1579      C1580   1.414       .  A
C1580      C1581   1.399       .  A
C1580     Br1587   1.930       .  S
C1581      C1582   1.403       .  A
C1581     Br1586   1.930       .  S
C1582      C1583   1.423       .  A
C1583     Br1584   1.928       .  S
C1588      C1589   1.402       .  A
C1588      C1593   1.405       .  A
C1588     Br1595   1.931       .  S
C1589      C1590   1.406       .  A
C1590      C1591   1.401       .  A
C1591      C1592   1.418       .  A
C1591     Br1596   1.935   1_655  S
C1592      C1593   1.430       .  A
C1593     Br1594   1.938       .  S
C1598      C1599   1.408       .  A
C1598      C1603   1.401       .  A
C1598     Br1605   1.931       .  S
C1599      C1600   1.406       .  A
C1600      C1601   1.402       .  A
C1600     Br1607   1.930       .  S
C1601      C1602   1.409       .  A
C1601     Br1606   1.932       .  S
C1602      C1603   1.402       .  A
C1603     Br1604   1.917       .  S
C1608      C1609   1.407       .  A
C1608      C1613   1.405       .  A
C1608     Br1615   1.929       .  S
C1609      C1610   1.404       .  A
C1610      C1611   1.400       .  A
C1611      C1612   1.409       .  A
C1612      C1613   1.407       .  A
C1613     Br1614   1.929       .  S
C1618      C1619   1.417       .  A
C1618      C1623   1.401       .  A
C1618     Br1625   1.932       .  S
C1619      C1620   1.408       .  A
C1620      C1621   1.409       .  A
C1620     Br1627   1.929       .  S
C1621      C1622   1.423       .  A
C1621     Br1626   1.933       .  S
C1622      C1623   1.405       .  A
C1623     Br1624   1.934       .  S
C1628     Br1635   1.926   1_545  S
C1629      C1630   1.405       .  A
C1630      C1631   1.402       .  A
C1630     Br1637   1.930       .  S
C1631      C1632   1.405       .  A
C1631     Br1636   1.919       .  S
C1632      C1633   1.407       .  A
C1633     Br1634   1.931   1_545  S
C1638      C1639   1.415       .  A
C1638      C1643   1.408       .  A
C1638     Br1645   1.931       .  S
C1639      C1640   1.408       .  A
C1640      C1641   1.407       .  A
C1641      C1642   1.409       .  A
C1642      C1643   1.406       .  A
C1643     Br1644   1.933       .  S
C1648      N1649   1.369       .  A
C1648      N1653   1.359       .  A
C1648      C2191   1.464       .  S
N1649      C1650   1.363       .  A
C1650      N1651   1.343       .  A
C1650      C2168   1.479       .  S
N1651      C1652   1.339       .  A
C1652      N1653   1.348       .  A
C1654      N1655   1.363       .  A
C1654      N1659   1.366       .  A
C1654      C2158   1.466       .  S
N1655      C1656   1.355       .  A
C1656      N1657   1.341       .  A
C1656      C2148   1.457       .  S
N1657      C1658   1.345       .  A
C1658      N1659   1.359       .  A
C1660      C1683   1.515       .  S
C1660      C1661   1.415       .  A
C1660      C1665   1.421       .  A
C1661      H1666   1.073   1_565  S
C1662      C1727   1.498       .  S
C1663      C1664   1.409       .  A
C1663      H1667   1.087       .  S
C1664      C1705   1.513       .  S
C1664      C1665   1.423       .  A
C1665      H1668   1.093       .  S
O1669     Cr1687   1.960       .  S
O1669      C1677   1.263       .  A
O1670     Cr1687   1.954       .  S
O1670      C1671   1.251       .  A
C1671      C1699   1.496       .  S
C1671      O1672   1.264       .  A
O1672     Cr1688   2.062       .  S
O1673     Cr1688   1.998       .  S
O1673      C1674   1.268       .  A
C1674      C2121   1.476       .  S
O1675     Cr1689   1.997       .  S
O1676     Cr1689   2.066       .  S
C1677      C1715   1.478       .  S
O1678      C1686   1.248       .  A
O1679     Cr1687   1.928       .  S
O1679      C1680   1.249       .  A
C1680      C2181   1.458       .  S
C1680      O1681   1.277       .  A
O1681     Cr1688   2.041       .  S
O1682     Cr1688   2.008       .  S
C1683      O1684   1.271       .  A
O1684     Cr1689   2.029       .  S
O1685     Cr1689   2.012       .  S
O1685      C1686   1.265       .  A
C1686      C2131   1.479       .  S
Cr1687     O1690   1.761       .  S
Cr1688     O1690   1.784       .  S
O1691     Cr1709   1.952       .  S
O1691      C1699   1.250       .  A
O1692     Cr1709   1.943       .  S
O1692      C1693   1.254       .  A
C1693      C1721   1.475       .  S
C1693      O1694   1.278       .  A
O1694     Cr1710   2.073       .  S
O1695     Cr1710   1.986       .  S
O1695      C1696   1.267       .  A
C1696      C2098   1.477       .  S
C1696      O1697   1.269       .  A
O1697     Cr1711   2.005       .  S
O1698     Cr1711   2.071       .  S
O1698      C1699   1.270       .  A
O1700     Cr1709   1.939       .  S
O1700      C1708   1.253       .  A
O1701     Cr1709   1.975       .  S
O1701      C1702   1.253       .  A
C1702      C2108   1.481       .  S
C1702      O1703   1.255       .  A
O1703     Cr1710   2.001       .  S
O1704     Cr1710   2.013       .  S
O1704      C1705   1.268       .  A
C1705      O1706   1.275       .  A
O1706     Cr1711   2.024       .  S
O1707     Cr1711   2.046       .  S
O1707      C1708   1.278       .  A
C1708      C2141   1.496       .  S
Cr1709     O1712   1.752       .  S
Cr1710     O1712   1.782       .  S
Cr1711     O1712   1.764       .  S
O1713     Cr1731   1.946       .  S
O1713      C1721   1.258       .  A
O1714     Cr1731   1.976       .  S
O1714      C1715   1.253       .  A
O1716     Cr1732   2.030       .  S
O1717     Cr1732   1.989       .  S
C1718      C2088   1.463       .  S
C1718      O1719   1.264       .  A
O1719     Cr1733   1.974       .  S
O1720     Cr1733   2.067       .  S
O1720      C1721   1.277       .  A
O1722     Cr1731   1.987       .  S
O1722      C1730   1.253       .  A
O1723      C1724   1.254   1_545  A
C1724      C2151   1.466       .  S
C1724      O1725   1.277       .  A
O1725     Cr1732   2.030       .  S
O1726     Cr1732   1.985       .  S
O1726      C1727   1.264       .  A
O1728     Cr1733   2.029       .  S
O1729     Cr1733   1.999       .  S
O1729      C1730   1.263       .  A
C1730      C2171   1.479       .  S
Cr1731     O1734   1.753       .  S
Cr1733     O1734   1.769       .  S
C1735      N1736   1.368       .  A
C1735      N1740   1.364       .  A
C1735      C2081   1.469       .  S
N1736      C1737   1.361       .  A
C1737      N1738   1.340       .  A
C1737      C2128   1.471       .  S
N1738      C1739   1.340       .  A
C1739      N1740   1.354       .  A
C1739      C2111   1.454       .  S
C1741      N1742   1.363       .  A
C1741      N1746   1.372       .  A
C1741      C2068   1.474       .  S
N1742      C1743   1.352       .  A
C1743      N1744   1.340       .  A
C1743      C2061   1.453       .  S
N1744      C1745   1.341       .  A
C1745      N1746   1.365       .  A
C1745      C2048   1.482       .  S
C1747      N1748   1.364       .  A
C1747      N1752   1.373       .  A
C1747      C2038   1.477       .  S
N1748      C1749   1.353       .  A
C1749      N1750   1.335       .  A
C1749      C2018   1.452       .  S
N1750      C1751   1.341       .  A
C1751      N1752   1.365       .  A
C1751      C2028   1.483       .  S
C1753      C1776   1.512       .  S
C1753      C1754   1.408       .  A
C1753      C1758   1.423       .  A
C1754      C1755   1.418       .  A
C1754      H1759   1.081       .  S
C1755      C1798   1.505       .  S
C1755      C1756   1.413       .  A
C1756      C1757   1.417       .  A
C1756      H1760   1.091       .  S
C1757      C1820   1.515       .  S
C1757      C1758   1.419       .  A
C1758      H1761   1.075       .  S
O1762      C1770   1.251       .  A
O1763     Cr1780   1.953       .  S
O1763      C1764   1.259       .  A
C1764      C1792   1.473       .  S
C1764      O1765   1.275       .  A
O1765     Cr1781   2.055       .  S
O1766     Cr1781   1.976       .  S
O1766      C1767   1.264       .  A
C1767      C2161   1.470       .  S
O1768     Cr1782   2.002       .  S
O1769     Cr1782   2.063       .  S
O1769      C1770   1.268       .  A
C1770      C1808   1.494       .  S
O1771      C1779   1.255       .  A
O1772     Cr1780   1.972       .  S
O1772      C1773   1.253       .  A
C1773      C2058   1.488       .  S
C1773      O1774   1.257       .  A
O1774     Cr1781   2.002       .  S
O1775     Cr1781   2.003       .  S
O1775      C1776   1.266       .  A
C1776      O1777   1.277       .  A
O1778     Cr1782   2.050       .  S
O1778      C1779   1.279       .  A
C1779      C2031   1.507       .  S
Cr1780     O1783   1.756       .  S
Cr1781     O1783   1.779       .  S
O1784      C1792   1.258       .  A
O1785      C1786   1.249       .  A
C1786      C1814   1.476       .  S
O1787     Cr1803   2.040       .  S
O1788     Cr1803   1.995   1_455  S
C1789      C2188   1.472       .  S
C1789      O1790   1.264       .  A
O1790     Cr1804   1.980       .  S
O1791     Cr1804   2.075       .  S
O1793     Cr1802   1.995       .  S
O1793      C1801   1.253       .  A
O1794      C1795   1.252   1_455  A
C1795      C2021   1.455       .  S
C1795      O1796   1.276       .  A
O1796     Cr1803   2.034       .  S
O1797      C1798   1.263       .  A
C1798      O1799   1.276       .  A
O1799     Cr1804   2.039       .  S
O1800     Cr1804   2.006       .  S
O1800      C1801   1.263       .  A
C1801      C2011   1.485       .  S
Cr1802     O1805   1.755       .  S
Cr1804     O1805   1.770       .  S
O1806     Cr1824   1.960       .  S
O1806      C1814   1.263       .  A
O1807     Cr1824   1.963       .  S
O1807      C1808   1.251       .  A
C1808      O1809   1.262       .  A
O1809     Cr1825   2.052       .  S
O1810     Cr1825   1.998       .  S
O1810      C1811   1.269       .  A
C1811      C2078   1.481       .  S
C1811      O1812   1.265       .  A
O1812     Cr1826   1.977       .  S
O1813     Cr1826   2.074       .  S
O1813      C1814   1.283       .  A
O1815     Cr1824   1.988       .  S
O1815      C1823   1.248       .  A
O1816     Cr1824   1.939       .  S
O1816      C1817   1.255       .  A
C1817      C1998   1.455       .  S
C1817      O1818   1.278       .  A
O1818     Cr1825   2.036       .  S
O1819     Cr1825   2.002       .  S
O1819      C1820   1.266       .  A
C1820      O1821   1.271       .  A
O1821     Cr1826   2.031       .  S
O1822     Cr1826   2.013       .  S
O1822      C1823   1.261       .  A
C1823      C2051   1.489       .  S
Cr1824     O1827   1.760       .  S
Cr1825     O1827   1.783       .  S
Cr1826     O1827   1.776       .  S
C1828      N1829   1.373       .  A
C1828      N1833   1.362       .  A
C1828      C1988   1.478       .  S
N1829      C1830   1.367       .  A
C1830      N1831   1.342       .  A
C1830      C2008   1.479       .  S
N1831      C1832   1.340       .  A
C1832      N1833   1.351       .  A
C1832      C2001   1.450       .  S
C1834      N1839   1.366   1_545  A
N1835      C1836   1.365   1_556  A
C1836      C1978   1.467       .  S
N1837      C1838   1.339       .  A
C1838      N1839   1.358   1_554  A
C1838      C1968   1.459       .  S
C1840      N1841   1.365       .  A
C1840      N1845   1.370       .  A
C1840      C2101   1.479       .  S
N1841      C1842   1.355   1_556  A
C1842      N1843   1.340       .  A
C1842      C1958   1.456       .  S
N1843      C1844   1.337       .  A
C1844      N1845   1.363   1_554  A
C1844      C1948   1.492       .  S
C1846      C1913   1.497       .  S
C1846      C1847   1.412       .  A
C1846      C1851   1.411       .  A
C1847      C1848   1.406       .  A
C1847      H1852   1.082       .  S
C1848      C1849   1.422       .  A
C1849      C1850   1.420       .  A
C1849      H1853   1.087       .  S
C1850      C1869   1.513       .  S
C1850      C1851   1.414       .  A
C1851      H1854   1.083       .  S
O1855     Cr1873   1.966       .  S
O1855      C1863   1.254       .  A
O1856     Cr1873   1.958       .  S
O1856      C1857   1.259       .  A
C1857      C1907   1.476       .  S
C1857      O1858   1.278       .  A
O1859     Cr1874   1.977       .  S
C1860      O1861   1.266       .  A
O1862      C1863   1.265       .  A
C1863      C1879   1.497       .  S
O1864     Cr1873   1.947       .  S
O1865     Cr1873   1.994       .  S
C1866      C1981   1.483       .  S
C1866      O1867   1.258       .  A
O1867     Cr1874   1.999       .  S
O1868     Cr1874   2.028       .  S
O1868      C1869   1.270       .  A
C1869      O1870   1.268       .  A
O1870     Cr1875   2.006       .  S
O1871     Cr1875   2.045       .  S
O1871      C1872   1.280       .  A
C1872      C1961   1.462       .  S
Cr1873     O1876   1.765       .  S
O1877     Cr1895   1.943       .  S
O1877      C1885   1.254       .  A
O1878     Cr1895   1.958       .  S
O1878      C1879   1.251       .  A
C1879      O1880   1.270       .  A
O1880     Cr1896   2.068       .  S
O1881     Cr1896   2.012       .  S
O1881      C1882   1.271       .  A
C1882      C2071   1.479       .  S
C1882      O1883   1.265       .  A
O1883     Cr1897   1.979       .  S
O1884     Cr1897   2.068       .  S
O1884      C1885   1.276       .  A
C1885      C1901   1.475       .  S
O1886     Cr1895   1.984       .  S
O1886      C1894   1.255       .  A
O1887     Cr1895   1.939       .  S
O1887      C1888   1.254       .  A
C1888      C1941   1.495       .  S
C1888      O1889   1.280       .  A
O1889     Cr1896   2.052       .  S
O1890     Cr1896   2.026       .  S
O1890      C1891   1.275       .  A
C1891      O1892   1.268       .  A
O1892     Cr1897   2.011       .  S
O1893     Cr1897   1.996       .  S
O1893      C1894   1.256       .  A
C1894      C1971   1.479       .  S
Cr1895     O1898   1.752       .  S
Cr1896     O1898   1.768       .  S
Cr1897     O1898   1.782       .  S
O1899     Cr1917   1.974       .  S
O1899      C1907   1.251       .  A
O1900     Cr1917   1.940       .  S
O1900      C1901   1.255       .  A
C1901      O1902   1.279       .  A
O1902     Cr1918   2.074       .  S
O1903     Cr1918   1.987       .  S
O1903      C1904   1.267       .  A
C1904      C1991   1.480       .  S
C1904      O1905   1.268       .  A
O1905     Cr1919   2.006       .  S
O1906     Cr1919   2.030       .  S
O1906      C1907   1.259       .  A
O1908     Cr1917   1.920       .  S
O1908      C1916   1.248       .  A
O1909     Cr1917   1.997       .  S
O1909      C1910   1.255       .  A
C1910      C1951   1.492       .  S
C1910      O1911   1.263       .  A
O1911     Cr1918   2.008       .  S
O1912     Cr1918   2.025       .  S
O1912      C1913   1.271       .  A
C1913      O1914   1.263       .  A
O1914     Cr1919   1.977       .  S
O1915     Cr1919   2.049       .  S
O1915      C1916   1.280       .  A
C1916      C1931   1.460       .  S
Cr1917     O1920   1.759       .  S
Cr1918     O1920   1.772       .  S
Cr1919     O1920   1.775       .  S
C1921      N1926   1.363   1_545  A
N1922      C1923   1.351   1_556  A
C1923      C1928   1.457       .  S
N1924      C1925   1.342   1_545  A
C1925      N1926   1.355   1_554  A
C1925      C1938   1.457       .  S
C1927      C1928   1.402       .  A
C1927      C1932   1.406       .  A
C1927     Br1934   1.925   1_554  S
C1928      C1929   1.404       .  A
C1929      C1930   1.396       .  A
C1929     Br1936   1.931       .  S
C1930      C1931   1.407       .  A
C1930     Br1935   1.924       .  S
C1931      C1932   1.414       .  A
C1932     Br1933   1.930       .  S
C1937      C1938   1.404       .  A
C1937      C1942   1.405       .  A
C1937     Br1944   1.929       .  S
C1938      C1939   1.401       .  A
C1939      C1940   1.402       .  A
C1939     Br1946   1.932   1_554  S
C1940      C1941   1.425       .  A
C1940     Br1945   1.932       .  S
C1941      C1942   1.417       .  A
C1942     Br1943   1.931       .  S
C1947      C1948   1.413       .  A
C1947      C1952   1.411       .  A
C1947     Br1954   1.936   1_554  S
C1948      C1949   1.422       .  A
C1949      C1950   1.407       .  A
C1949     Br1956   1.930       .  S
C1950      C1951   1.406       .  A
C1950     Br1955   1.934       .  S
C1951      C1952   1.423       .  A
C1952     Br1953   1.925       .  S
C1957      C1958   1.412       .  A
C1957      C1962   1.398       .  A
C1957     Br1964   1.934       .  S
C1958      C1959   1.403       .  A
C1959      C1960   1.407   1_655  A
C1959     Br1966   1.926   1_654  S
C1960      C1961   1.414   1_455  A
C1961      C1962   1.402       .  A
C1962     Br1963   1.930       .  S
C1967      C1968   1.403       .  A
C1967      C1972   1.404       .  A
C1967     Br1974   1.928       .  S
C1968      C1969   1.410       .  A
C1969      C1970   1.407       .  A
C1969     Br1976   1.928   1_565  S
C1970      C1971   1.413       .  A
C1970     Br1975   1.930       .  S
C1971      C1972   1.406       .  A
C1972     Br1973   1.911       .  S
C1977      C1978   1.413       .  A
C1977      C1982   1.413   1_655  A
C1977     Br1984   1.929   1_655  S
C1978      C1979   1.408       .  A
C1979      C1980   1.404       .  A
C1979     Br1986   1.928       .  S
C1980      C1981   1.408       .  A
C1980     Br1985   1.922       .  S
C1981      C1982   1.411   1_655  A
C1987      C1988   1.410       .  A
C1987      C1992   1.412       .  A
C1987     Br1994   1.930       .  S
C1988      C1989   1.411       .  A
C1989      C1990   1.408       .  A
C1989     Br1996   1.930       .  S
C1990      C1991   1.405       .  A
C1990     Br1995   1.922       .  S
C1991      C1992   1.411       .  A
C1992     Br1993   1.928       .  S
C1997      C1998   1.407       .  A
C1997      C2002   1.401       .  A
C1997     Br2004   1.931       .  S
C1998      C1999   1.406       .  A
C1999      C2000   1.401       .  A
C1999     Br2006   1.924       .  S
C2000      C2001   1.403       .  A
C2000     Br2005   1.928       .  S
C2001      C2002   1.406       .  A
C2002     Br2003   1.928       .  S
C2007      C2008   1.404       .  A
C2007      C2012   1.411       .  A
C2007     Br2014   1.928       .  S
C2008      C2009   1.415       .  A
C2009      C2010   1.406       .  A
C2009     Br2016   1.925       .  S
C2010      C2011   1.406       .  A
C2010     Br2015   1.931       .  S
C2011      C2012   1.421       .  A
C2012     Br2013   1.925       .  S
C2017      C2018   1.409       .  A
C2017      C2022   1.401       .  A
C2017     Br2024   1.930       .  S
C2018      C2019   1.407       .  A
C2019      C2020   1.400   1_655  A
C2019     Br2026   1.931   1_655  S
C2020      C2021   1.410   1_455  A
C2021      C2022   1.403       .  A
C2022     Br2023   1.925       .  S
C2027      C2028   1.398       .  A
C2027      C2032   1.412       .  A
C2028      C2029   1.410       .  A
C2029      C2030   1.405       .  A
C2029     Br2036   1.931       .  S
C2030      C2031   1.421       .  A
C2030     Br2035   1.936       .  S
C2031      C2032   1.435       .  A
C2037      C2038   1.411       .  A
C2037      C2042   1.407       .  A
C2037     Br2044   1.934       .  S
C2038      C2039   1.411       .  A
C2040     Br2045   1.922       .  S
C2041      C2042   1.412       .  A
C2042     Br2043   1.932       .  S
C2047      C2048   1.417       .  A
C2047      C2052   1.405       .  A
C2047     Br2054   1.934       .  S
C2048      C2049   1.406       .  A
C2049      C2050   1.412       .  A
C2049     Br2056   1.929       .  S
C2050      C2051   1.424       .  A
C2050     Br2055   1.930       .  S
C2051      C2052   1.406       .  A
C2052     Br2053   1.930       .  S
C2057      C2058   1.421       .  A
C2057      C2062   1.405       .  A
C2057     Br2064   1.924       .  S
C2058      C2059   1.416       .  A
C2059      C2060   1.405       .  A
C2059     Br2066   1.917       .  S
C2060      C2061   1.400       .  A
C2061      C2062   1.399       .  A
C2062     Br2063   1.929       .  S
C2067      C2068   1.410       .  A
C2067      C2072   1.408       .  A
C2067     Br2074   1.932       .  S
C2068      C2069   1.407       .  A
C2069      C2070   1.409       .  A
C2069     Br2076   1.928   1_565  S
C2070      C2071   1.413       .  A
C2070     Br2075   1.931   1_565  S
C2071      C2072   1.409       .  A
C2072     Br2073   1.926       .  S
C2077      C2078   1.417       .  A
C2077      C2082   1.408       .  A
C2077     Br2084   1.934       .  S
C2078      C2079   1.414       .  A
C2079      C2080   1.407       .  A
C2079     Br2086   1.932       .  S
C2080      C2081   1.407       .  A
C2080     Br2085   1.931       .  S
C2081      C2082   1.406       .  A
C2082     Br2083   1.932       .  S
C2087      C2088   1.409       .  A
C2088      C2089   1.407       .  A
C2089      C2090   1.401       .  A
C2089     Br2096   1.932       .  S
C2090      C2091   1.410       .  A
C2090     Br2095   1.933       .  S
C2092     Br2093   1.928       .  S
C2097      C2098   1.410       .  A
C2097      C2102   1.407       .  A
C2097     Br2104   1.930       .  S
C2098      C2099   1.407       .  A
C2099      C2100   1.410       .  A
C2099     Br2106   1.923       .  S
C2100      C2101   1.412       .  A
C2100     Br2105   1.930       .  S
C2101      C2102   1.408       .  A
C2102     Br2103   1.927       .  S
C2107      C2108   1.417       .  A
C2107      C2112   1.407       .  A
C2107     Br2114   1.925       .  S
C2108      C2109   1.406       .  A
C2109      C2110   1.403       .  A
C2109     Br2116   1.908       .  S
C2110      C2111   1.403       .  A
C2110     Br2115   1.930       .  S
C2111      C2112   1.404       .  A
C2112     Br2113   1.930       .  S
C2117      C2118   1.412       .  A
C2117      C2122   1.411       .  A
C2117     Br2124   1.923       .  S
C2119     Br2126   1.931       .  S
C2120      C2121   1.410       .  A
C2121      C2122   1.405       .  A
C2122     Br2123   1.926       .  S
C2127      C2128   1.403       .  A
C2127      C2132   1.406       .  A
C2127     Br2134   1.930       .  S
C2128      C2129   1.415       .  A
C2129      C2130   1.402       .  A
C2129     Br2136   1.931       .  S
C2130      C2131   1.404       .  A
C2130     Br2135   1.930       .  S
C2131      C2132   1.423       .  A
C2132     Br2133   1.928   1_565  S
C2137      C2138   1.402       .  A
C2137      C2142   1.408       .  A
C2137     Br2144   1.930       .  S
C2138      C2139   1.408       .  A
C2139      C2140   1.402       .  A
C2140      C2141   1.418       .  A
C2140     Br2145   1.935   1_655  S
C2141      C2142   1.432       .  A
C2142     Br2143   1.939       .  S
C2147      C2148   1.408       .  A
C2147      C2152   1.401       .  A
C2147     Br2154   1.930       .  S
C2148      C2149   1.406       .  A
C2149      C2150   1.405       .  A
C2149     Br2156   1.930       .  S
C2150      C2151   1.412       .  A
C2150     Br2155   1.932       .  S
C2151      C2152   1.403       .  A
C2152     Br2153   1.919       .  S
C2157      C2158   1.409       .  A
C2157      C2162   1.409       .  A
C2157     Br2164   1.930       .  S
C2158      C2159   1.405       .  A
C2159      C2160   1.403       .  A
C2160      C2161   1.410       .  A
C2161      C2162   1.409       .  A
C2162     Br2163   1.929       .  S
C2167      C2168   1.415       .  A
C2167      C2172   1.402       .  A
C2167     Br2174   1.930       .  S
C2168      C2169   1.406       .  A
C2169      C2170   1.408       .  A
C2169     Br2176   1.930       .  S
C2170      C2171   1.423       .  A
C2170     Br2175   1.930       .  S
C2171      C2172   1.406       .  A
C2172     Br2173   1.932       .  S
C2177     Br2184   1.928       .  S
C2178      C2179   1.405       .  A
C2179      C2180   1.401       .  A
C2179     Br2186   1.931       .  S
C2180      C2181   1.404       .  A
C2180     Br2185   1.918       .  S
C2181      C2182   1.409       .  A
C2182     Br2183   1.931       .  S
C2187      C2188   1.414       .  A
C2187      C2192   1.406       .  A
C2187     Br2194   1.931       .  S
C2188      C2189   1.408       .  A
C2189      C2190   1.405       .  A
C2190      C2191   1.408       .  A
C2191      C2192   1.405       .  A
C2192     Br2193   1.933       .  S
