geometry optimzed in LAMMPS
_audit_creation_date              2020-11-30 
_audit_creation_method            'lammps2cif' 
_symmetry_space_group_name_H-M    'P1' 
_symmetry_Int_Tables_number       1 
_symmetry_cell_setting            triclinic 
loop_ 
_symmetry_equiv_pos_as_xyz 
  x,y,z 
_cell_length_a                    19.58969723 
_cell_length_b                    25.41777633220423 
_cell_length_c                    20.286958769901336 
_cell_angle_alpha                 87.57929321824514 
_cell_angle_beta                  91.46430960427848 
_cell_angle_gamma                 90.66750156625096 
loop_ 
_atom_site_label 
_atom_site_type_symbol 
_atom_site_fract_x 
_atom_site_fract_y 
_atom_site_fract_z 
_atom_site_charge 
C1          C  0.07548313  0.80211774  0.19166284     0.02700
C2          C  0.05825376  0.70470941  0.04486040     0.02700
C3          C  0.24417078  0.82063712  0.29241739     0.02700
C4          C  0.22330695  0.71256339  0.43492326     0.02700
C5          C  0.08866101  0.19505760  0.19844896     0.02700
C6          C  0.06020011  0.31141750  0.06598344     0.02700
C7          C  0.26073308  0.21977274  0.30809774     0.02700
C8          C  0.22501730  0.31042351  0.45575375     0.02700
O9          O  0.18480223  0.45490245  0.17146601    -0.69200
O10         O  0.24371665  0.56563349  0.28335482    -0.69200
O11         O  0.24600771  0.45862915  0.29234534    -0.69300
O12         O  0.18253282  0.56221421  0.16263353    -0.69300
O13         O  0.08013199  0.56074505  0.20873286    -0.69300
O14         O  0.14338953  0.45776509  0.33801887    -0.69300
O15         O  0.14107524  0.56420518  0.32899858    -0.69200
O16         O  0.08244569  0.45387165  0.21760861    -0.69300
Ni17       Ni  0.21800239  0.51036647  0.22570518     1.25400
Ni18       Ni  0.10814798  0.50908111  0.27495171     1.25400
C19         C  0.12424167  0.43594057  0.17688473     0.93000
C20         C  0.20151484  0.58326461  0.32398037     0.92900
C21         C  0.20458572  0.44106403  0.33603430     0.92900
C22         C  0.12130918  0.57898785  0.16531246     0.93100
O23         O  0.32186526  0.95129240  0.07547977    -0.69200
O24         O  0.26126148  0.06373445  0.45914648    -0.69200
O25         O  0.25979456  0.95686080  0.45604970    -0.69300
O26         O  0.32547998  0.05762293  0.07839533    -0.69300
O27         O  0.09337954  0.05972946  0.03163508    -0.69300
O28         O  0.02728159  0.95960579  0.40778881    -0.69300
O29         O  0.02838902  0.06662580  0.41058356    -0.69200
O30         O  0.08971367  0.95316272  0.02913433    -0.69300
Ni31       Ni  0.28847552  0.00734234  0.01859294     1.25400
Ni32       Ni  0.06366544  0.00990505  0.46712050     1.25400
C33         C  0.04813766  0.93397090  0.07180869     0.93000
C34         C  0.30177390  0.08376909  0.41638432     0.92900
C35         C  0.30034818  0.94091806  0.41267842     0.92900
C36         C  0.05349254  0.07542010  0.07540703     0.93100
C37         C  0.23156663  0.36119682  0.41818096    -0.08100
C38         C  0.22525580  0.39984871  0.38222683    -0.09600
C39         C  0.26491601  0.16827142  0.34467688    -0.08100
C40         C  0.27927334  0.12822516  0.37581163    -0.09600
C41         C  0.25902424  0.26242461  0.35824156    -0.11200
C42         C  0.21129061  0.26838333  0.40474527    -0.26400
H43         H  0.30205089  0.28986099  0.35909839     0.17800
H44         H  0.16714685  0.24233921  0.40647629     0.18400
C45         C  0.08399016  0.35635591  0.10522042    -0.08100
C46         C  0.10276598  0.39304019  0.13721773    -0.09600
C47         C  0.29107785  0.29554215  0.49244374    -0.11200
C48         C  0.99455757  0.32844548  0.03042276    -0.26400
H49         H  0.31061654  0.25604874  0.48737061     0.17800
H50         H  0.97558662  0.36805820  0.03597520     0.18400
C51         C  0.17172582  0.31960206  0.50728966    -0.11200
C52         C  0.11206349  0.29563079  0.01450038    -0.26400
H53         H  0.18592718  0.35052826  0.54038569     0.17400
H54         H  0.09769172  0.26376752  0.98304484     0.18400
C55         C  0.09051173  0.14942027  0.15633555    -0.08100
C56         C  0.07784503  0.11406483  0.12002635    -0.09600
C57         C  0.14749186  0.18958282  0.25085265    -0.11200
C58         C  0.19848886  0.22580601  0.26075610    -0.26400
H59         H  0.14845934  0.15301729  0.28053298     0.17800
H60         H  0.19643482  0.26378066  0.23461877     0.18400
C61         C  0.01827658  0.19171553  0.23052440    -0.11200
C62         C  0.32784710  0.22732375  0.27017189    -0.26400
H63         H  0.98553464  0.15766104  0.22168840     0.17800
H64         H  0.36079981  0.26121747  0.27860342     0.18400
C65         C  0.09701797  0.24335979  0.15183085    -0.11200
C66         C  0.04628799  0.26517132  0.11417344    -0.26400
H67         H  0.14839223  0.25648496  0.14028262     0.17800
H68         H  0.99445825  0.25001249  0.11897646     0.18400
C69         C  0.22745550  0.66477285  0.39644147    -0.08100
C70         C  0.22081208  0.62652105  0.36367727    -0.09600
C71         C  0.26297098  0.86512128  0.33392888    -0.08100
C72         C  0.27830480  0.90061115  0.36926493    -0.09600
C73         C  0.24630836  0.76961219  0.33437786    -0.11200
C74         C  0.20731949  0.75958754  0.38756990    -0.26400
H75         H  0.28344493  0.74025704  0.32237548     0.17800
H76         H  0.17111751  0.78923676  0.40003758     0.18400
C77         C  0.08019716  0.65770311  0.08565755    -0.08100
C78         C  0.09878243  0.62052228  0.12020603    -0.09600
C79         C  0.29091337  0.72480428  0.46921069    -0.11200
C80         C  0.99117209  0.69066756  0.01086935    -0.26400
H81         H  0.31307059  0.76386953  0.46084833     0.17800
H82         H  0.96942792  0.65144438  0.01931966     0.18400
C83         C  0.17133917  0.69955787  0.48780581    -0.11200
C84         C  0.10990222  0.72029110  0.99199537    -0.26400
H85         H  0.18597535  0.66825662  0.52310614     0.17800
H86         H  0.09463873  0.75140268  0.95700728     0.18400
C87         C  0.07487025  0.85122660  0.14980068    -0.08100
C88         C  0.06760044  0.89011643  0.11441621    -0.09600
C89         C  0.14593392  0.79490739  0.22149875    -0.11200
C90         C  0.17389245  0.82939436  0.26300726    -0.26400
H91         H  0.17481487  0.76012733  0.21040719     0.17800
H92         H  0.14559330  0.86426843  0.27472538     0.18400
C93         C  0.29365925  0.81813995  0.23626195    -0.11200
C94         C  0.02616850  0.80674324  0.24720994    -0.26400
H95         H  0.27522362  0.82428804  0.18547081     0.17800
H96         H  0.04464739  0.80094426  0.29805284     0.18400
C97         C  0.04995057  0.75288106  0.08652865    -0.11200
C98         C  0.05894107  0.75314446  0.15293519    -0.26400
H99         H  0.04232395  0.78999258  0.05905562     0.17800
H100        H  0.06225734  0.71602035  0.18127256     0.18400
C101        C  0.07613084  0.80239442  0.69144037     0.02700
C102        C  0.05741257  0.70504514  0.54479900     0.02700
C103        C  0.24494654  0.82042752  0.79219428     0.02700
C104        C  0.22386096  0.71206993  0.93444812     0.02700
C105        C  0.08984883  0.19468834  0.69771309     0.02700
C106        C  0.05868699  0.31127235  0.56631241     0.02700
C107        C  0.26192322  0.21976960  0.80735109     0.02700
C108        C  0.22617217  0.31069967  0.95477464     0.02700
O109        O  0.18363103  0.45485227  0.67058835    -0.69200
O110        O  0.24390242  0.56567752  0.78173358    -0.69200
O111        O  0.24575277  0.45869903  0.79103172    -0.69300
O112        O  0.18181809  0.56214605  0.66139443    -0.69300
O113        O  0.07977910  0.56102747  0.70820906    -0.69300
O114        O  0.14349363  0.45815209  0.83739825    -0.69300
O115        O  0.14159109  0.56455260  0.82803060    -0.69200
O116        O  0.08161617  0.45419423  0.71739568    -0.69300
Ni117      Ni  0.21749985  0.51035467  0.72440067     1.25400
Ni118      Ni  0.10801837  0.50943421  0.77438232     1.25400
C119        C  0.12304391  0.43605070  0.67649341     0.93000
C120        C  0.20209186  0.58340157  0.82267079     0.92900
C121        C  0.20461425  0.44132848  0.83508275     0.92900
C122        C  0.12071413  0.57908312  0.66447564     0.93100
O123        O  0.32268214  0.95160591  0.57595117    -0.69200
O124        O  0.26123877  0.06373418  0.95870996    -0.69200
O125        O  0.25990834  0.95685954  0.95520409    -0.69300
O126        O  0.32653556  0.05795420  0.57835585    -0.69300
O127        O  0.09398948  0.05981419  0.52980271    -0.69300
O128        O  0.02741613  0.95995355  0.90880418    -0.69300
O129        O  0.02886879  0.06694050  0.91195577    -0.69200
O130        O  0.09054297  0.95311131  0.52775991    -0.69300
Ni131      Ni  0.28893857  0.00751304  0.51905542     1.25400
Ni132      Ni  0.06345841  0.01006187  0.96856122     1.25400
C133        C  0.04931526  0.93395042  0.57081524     0.93000
C134        C  0.30210977  0.08389008  0.91634416     0.92900
C135        C  0.30084447  0.94096511  0.91215114     0.92900
C136        C  0.05442695  0.07548661  0.57387670     0.93100
C137        C  0.23234238  0.36153897  0.91722494    -0.08100
C138        C  0.22555919  0.40018489  0.88130729    -0.09600
C139        C  0.26593819  0.16843263  0.84434356    -0.08100
C140        C  0.27996456  0.12843005  0.87572486    -0.09600
C141        C  0.25996938  0.26271277  0.85713396    -0.11200
C142        C  0.21232344  0.26867686  0.90374342    -0.26400
H143        H  0.30286704  0.29027754  0.85777612     0.17800
H144        H  0.16828936  0.24253149  0.90569571     0.18400
C145        C  0.08232396  0.35625711  0.60549376    -0.08100
C146        C  0.10116815  0.39305031  0.63723099    -0.09600
C147        C  0.29239787  0.29579105  0.99113704    -0.11200
C148        C  0.99267700  0.32808409  0.53126053    -0.26400
H149        H  0.31170423  0.25622242  0.98610379     0.17800
H150        H  0.97367534  0.36768348  0.53685980     0.18400
C151        C  0.17316541  0.31972393  0.00668644    -0.11200
C152        C  0.11035377  0.29582772  0.51452685    -0.26400
H153        H  0.18728970  0.35087368  0.03948835     0.17400
H154        H  0.09584907  0.26419275  0.48276483     0.18400
C155        C  0.09161680  0.14929572  0.65511395    -0.08100
C156        C  0.07900460  0.11413643  0.61845440    -0.09600
C157        C  0.14906252  0.18922929  0.74972161    -0.11200
C158        C  0.19989524  0.22557385  0.75967833    -0.26400
H159        H  0.15023885  0.15263084  0.77932555     0.17800
H160        H  0.19781015  0.26349556  0.73342891     0.18400
C161        C  0.01985210  0.19106201  0.73042981    -0.11200
C162        C  0.32918835  0.22713231  0.76967869    -0.26400
H163        H  0.98724467  0.15687729  0.72193581     0.17800
H164        H  0.36189943  0.26122709  0.77774071     0.18400
C165        C  0.09721363  0.24328571  0.65145971    -0.11200
C166        C  0.04579578  0.26481940  0.61439067    -0.26400
H167        H  0.14829538  0.25698685  0.63972782     0.17800
H168        H  0.99422716  0.24918147  0.61944993     0.18400
C169        C  0.22840459  0.66444984  0.89571154    -0.08100
C170        C  0.22186806  0.62643750  0.86252017    -0.09600
C171        C  0.26382262  0.86492816  0.83363632    -0.08100
C172        C  0.27917760  0.90055888  0.86873598    -0.09600
C173        C  0.24706675  0.76938667  0.83414653    -0.11200
C174        C  0.20786098  0.75917537  0.88716630    -0.26400
H175        H  0.28439265  0.74014251  0.82224412     0.17800
H176        H  0.17143793  0.78869802  0.89949310     0.18400
C177        C  0.07939272  0.65797065  0.58536027    -0.08100
C178        C  0.09807887  0.62066160  0.61957146    -0.09600
C179        C  0.29126936  0.72445430  0.96894764    -0.11200
C180        C  0.99037244  0.69089017  0.51082392    -0.26400
H181        H  0.31312241  0.76364913  0.96084188     0.17800
H182        H  0.96876132  0.65161748  0.51925357     0.18400
C183        C  0.17184453  0.69874478  0.98723598    -0.11200
C184        C  0.10910865  0.72075541  0.49204035    -0.26400
H185        H  0.18633119  0.66714704  0.02218146     0.17800
H186        H  0.09368343  0.75161260  0.45674067     0.18400
C187        C  0.07591538  0.85141953  0.64931514    -0.08100
C188        C  0.06900313  0.89018625  0.61357885    -0.09600
C189        C  0.14657128  0.79490562  0.72123971    -0.11200
C190        C  0.17470058  0.82929479  0.76277392    -0.26400
H191        H  0.17524399  0.76002104  0.71015748     0.17800
H192        H  0.14655207  0.86424640  0.77447932     0.18400
C193        C  0.29444061  0.81792649  0.73606402    -0.11200
C194        C  0.02698045  0.80733575  0.74708680    -0.26400
H195        H  0.27599824  0.82389986  0.68525032     0.17800
H196        H  0.04553360  0.80156346  0.79790977     0.18400
C197        C  0.04908836  0.75311386  0.58662270    -0.11200
C198        C  0.05910122  0.75339258  0.65291860    -0.26400
H199        H  0.04082884  0.79019470  0.55926620     0.17800
H200        H  0.06285543  0.71627285  0.68121939     0.18400
C201        C  0.40883474  0.80174727  0.19149429     0.02700
C202        C  0.39123867  0.70448487  0.04470780     0.02700
C203        C  0.57743838  0.82022533  0.29243184     0.02700
C204        C  0.55671916  0.71182648  0.43455721     0.02700
C205        C  0.42190058  0.19447122  0.19795913     0.02700
C206        C  0.39334101  0.31097217  0.06585874     0.02700
C207        C  0.59379359  0.21937237  0.30790570     0.02700
C208        C  0.55817793  0.31045818  0.45532083     0.02700
O209        O  0.51878156  0.45452442  0.17042166    -0.69200
O210        O  0.57820800  0.56531482  0.28212136    -0.69200
O211        O  0.58042785  0.45827244  0.29112324    -0.69300
O212        O  0.51654492  0.56189248  0.16152596    -0.69300
O213        O  0.41433603  0.56041718  0.20800689    -0.69300
O214        O  0.47793978  0.45750776  0.33705593    -0.69300
O215        O  0.47570645  0.56388454  0.32804178    -0.69200
O216        O  0.41660720  0.45360323  0.21692577    -0.69300
Ni217      Ni  0.55224392  0.51002629  0.22452060     1.25400
Ni218      Ni  0.44256343  0.50879478  0.27411470     1.25400
C219        C  0.45822414  0.43559085  0.17611754     0.93000
C220        C  0.53614239  0.58291028  0.32292121     0.92900
C221        C  0.53908758  0.44076120  0.33493176     0.92900
C222        C  0.45532432  0.57866036  0.16443960     0.93100
O223        O  0.65503820  0.95173054  0.07562173    -0.69200
O224        O  0.59465960  0.06333277  0.45889747    -0.69200
O225        O  0.59354392  0.95644327  0.45619493    -0.69300
O226        O  0.65859057  0.05807224  0.07810104    -0.69300
O227        O  0.42708955  0.05927854  0.03076260    -0.69300
O228        O  0.36117933  0.95914222  0.40798919    -0.69300
O229        O  0.36237521  0.06617795  0.41060205    -0.69200
O230        O  0.42377379  0.95262499  0.02839702    -0.69300
Ni231      Ni  0.62172031  0.00761573  0.01845017     1.25400
Ni232      Ni  0.39749100  0.00946288  0.46731188     1.25400
C233        C  0.38208548  0.93332499  0.07092304     0.93000
C234        C  0.63501109  0.08336929  0.41599769     0.92900
C235        C  0.63398596  0.94048930  0.41273679     0.92900
C236        C  0.38709383  0.07482909  0.07454648     0.93100
C237        C  0.56539462  0.36102900  0.41740899    -0.08100
C238        C  0.55968151  0.39957148  0.38117717    -0.09600
C239        C  0.59795426  0.16784174  0.34439340    -0.08100
C240        C  0.61232640  0.12776305  0.37543793    -0.09600
C241        C  0.59213035  0.26198256  0.35815089    -0.11200
C242        C  0.54430298  0.26824631  0.40449658    -0.26400
H243        H  0.63536428  0.28921540  0.35920045     0.17800
H244        H  0.49987088  0.24249347  0.40607639     0.18400
C245        C  0.41728503  0.35587420  0.10506228    -0.08100
C246        C  0.43647727  0.39261094  0.13674219    -0.09600
C247        C  0.62396269  0.29544022  0.49236816    -0.11200
C248        C  0.32779989  0.32816866  0.03024802    -0.26400
H249        H  0.64344169  0.25591706  0.48740120     0.17800
H250        H  0.30898494  0.36783022  0.03577275     0.18400
C251        C  0.50479693  0.32017505  0.50662941    -0.11200
C252        C  0.44519391  0.29509971  0.01445890    -0.26400
H253        H  0.51863521  0.35167709  0.53900687     0.17400
H254        H  0.43053732  0.26365540  0.98246110     0.18400
C255        C  0.42364370  0.14885730  0.15571985    -0.08100
C256        C  0.41117828  0.11353254  0.11926895    -0.09600
C257        C  0.48078342  0.18899928  0.25032581    -0.11200
C258        C  0.53158706  0.22535774  0.26047292    -0.26400
H259        H  0.48185616  0.15237379  0.27987977     0.17800
H260        H  0.52940784  0.26337072  0.23443326     0.18400
C261        C  0.35161704  0.19124393  0.23017526    -0.11200
C262        C  0.66095930  0.22703556  0.27005974    -0.26400
H263        H  0.31870178  0.15729430  0.22131068     0.17800
H264        H  0.69374543  0.26103467  0.27842238     0.18400
C265        C  0.43018616  0.24281800  0.15146146    -0.11200
C266        C  0.37938110  0.26472638  0.11398236    -0.26400
H267        H  0.48156385  0.25593787  0.13990720     0.17800
H268        H  0.32753480  0.24960940  0.11881011     0.18400
C269        C  0.56167507  0.66415504  0.39591895    -0.08100
C270        C  0.55550555  0.62605237  0.36280809    -0.09600
C271        C  0.59622302  0.86464156  0.33411463    -0.08100
C272        C  0.61180196  0.90010840  0.36943104    -0.09600
C273        C  0.57965205  0.76910195  0.33418282    -0.11200
C274        C  0.54050145  0.75881910  0.38720478    -0.26400
H275        H  0.61699489  0.73990398  0.32217513     0.17800
H276        H  0.50416713  0.78837024  0.39965149     0.18400
C277        C  0.41344778  0.65742675  0.08527623    -0.08100
C278        C  0.43250870  0.62021049  0.11950448    -0.09600
C279        C  0.62400712  0.72455517  0.46912893    -0.11200
C280        C  0.32424714  0.69029570  0.01063809    -0.26400
H281        H  0.64581417  0.76374661  0.46082706     0.17800
H282        H  0.30266228  0.65100699  0.01898250     0.18400
C283        C  0.50460284  0.69837329  0.48724659    -0.11200
C284        C  0.44289599  0.72034804  0.99196396    -0.26400
H285        H  0.51908576  0.66683027  0.52227668     0.17800
H286        H  0.42715783  0.75074471  0.95615437     0.18400
C287        C  0.40846245  0.85079553  0.14946190    -0.08100
C288        C  0.40149264  0.88955981  0.11376313    -0.09600
C289        C  0.47924581  0.79447925  0.22142189    -0.11200
C290        C  0.50717003  0.82895674  0.26298315    -0.26400
H291        H  0.50811283  0.75968607  0.21035601     0.17800
H292        H  0.47886256  0.86382461  0.27470206     0.18400
C293        C  0.62694950  0.81791425  0.23629072    -0.11200
C294        C  0.35951106  0.80650706  0.24700294    -0.26400
H295        H  0.60851587  0.82405969  0.18549704     0.17800
H296        H  0.37795581  0.80069684  0.29785676     0.18400
C297        C  0.38266926  0.75251331  0.08651544    -0.11200
C298        C  0.39216513  0.75274492  0.15286335    -0.26400
H299        H  0.37459094  0.78960698  0.05913597     0.17800
H300        H  0.39579367  0.71560764  0.18114261     0.18400
C301        C  0.40972906  0.80188322  0.69141629     0.02700
C302        C  0.39097564  0.70438405  0.54481354     0.02700
C303        C  0.57832317  0.82048418  0.79232631     0.02700
C304        C  0.55722205  0.71263595  0.93511054     0.02700
C305        C  0.42333487  0.19446051  0.69759018     0.02700
C306        C  0.39234100  0.31136100  0.56660370     0.02700
C307        C  0.59522034  0.21979922  0.80728724     0.02700
C308        C  0.55954193  0.31006421  0.95532920     0.02700
O309        O  0.51638685  0.45480097  0.67239827    -0.69200
O310        O  0.57586867  0.56552104  0.78394196    -0.69200
O311        O  0.57788235  0.45864939  0.79303945    -0.69300
O312        O  0.51443022  0.56204153  0.66334101    -0.69300
O313        O  0.41212855  0.56088080  0.70962437    -0.69300
O314        O  0.47542038  0.45785973  0.83903400    -0.69300
O315        O  0.47338204  0.56433546  0.82989062    -0.69200
O316        O  0.41411050  0.45394370  0.71868178    -0.69300
Ni317      Ni  0.54983985  0.51027529  0.72644499     1.25400
Ni318      Ni  0.44011576  0.50920710  0.77594426     1.25400
C319        C  0.45580900  0.43591067  0.67790966     0.93000
C320        C  0.53390287  0.58323141  0.82471294     0.92900
C321        C  0.53661242  0.44113471  0.83684864     0.92900
C322        C  0.45326477  0.57889388  0.66600294     0.93100
O323        O  0.65673846  0.95163055  0.57593371    -0.69200
O324        O  0.59453910  0.06381163  0.95831521    -0.69200
O325        O  0.59333444  0.95696010  0.95521644    -0.69300
O326        O  0.66021797  0.05798076  0.57797732    -0.69300
O327        O  0.42775199  0.05938834  0.52998760    -0.69300
O328        O  0.36169287  0.95925485  0.90790510    -0.69300
O329        O  0.36275839  0.06630517  0.91093269    -0.69200
O330        O  0.42416988  0.95270136  0.52807517    -0.69300
Ni331      Ni  0.62268175  0.00731703  0.51893169     1.25400
Ni332      Ni  0.39746398  0.00948320  0.96767023     1.25400
C333        C  0.38279221  0.93353518  0.57098519     0.93000
C334        C  0.63550449  0.08394264  0.91603756     0.92900
C335        C  0.63432550  0.94104422  0.91222553     0.92900
C336        C  0.38815763  0.07506628  0.57402881     0.93100
C337        C  0.56504847  0.36105670  0.91818133    -0.08100
C338        C  0.55763026  0.39989283  0.88279460    -0.09600
C339        C  0.59930814  0.16845156  0.84415003    -0.08100
C340        C  0.61339786  0.12843043  0.87539992    -0.09600
C341        C  0.59322015  0.26265435  0.85718108    -0.11200
C342        C  0.54580872  0.26819521  0.90410775    -0.26400
H343        H  0.63589724  0.29042589  0.85768555     0.17800
H344        H  0.50207259  0.24175596  0.90622697     0.18400
C345        C  0.41592074  0.35630958  0.60598815    -0.08100
C346        C  0.43431318  0.39298739  0.63822019    -0.09600
C347        C  0.62601400  0.29545992  0.99139923    -0.11200
C348        C  0.32634946  0.32808457  0.53147094    -0.26400
H349        H  0.64563795  0.25600697  0.98621741     0.17800
H350        H  0.30727481  0.36766673  0.53701311     0.18400
C351        C  0.50668673  0.31868263  0.00740760    -0.11200
C352        C  0.44392098  0.29588314  0.51475720    -0.26400
H353        H  0.52108621  0.34938969  0.04074828     0.17400
H354        H  0.42975826  0.26371506  0.48370582     0.18400
C355        C  0.42526840  0.14898991  0.65513075    -0.08100
C356        C  0.41270489  0.11374638  0.61858175    -0.09600
C357        C  0.48239957  0.18914520  0.74974635    -0.11200
C358        C  0.53315714  0.22555803  0.75966585    -0.26400
H359        H  0.48357665  0.15258724  0.77943152     0.17800
H360        H  0.53100854  0.26345141  0.73333808     0.18400
C361        C  0.35326057  0.19084828  0.73013138    -0.11200
C362        C  0.66245549  0.22719827  0.76959391    -0.26400
H363        H  0.32064773  0.15667736  0.72157051     0.17800
H364        H  0.69503300  0.26138717  0.77753783     0.18400
C365        C  0.43084530  0.24300297  0.65128321    -0.11200
C366        C  0.37939533  0.26487718  0.61460545    -0.26400
H367        H  0.48199732  0.25636781  0.63923410     0.17800
H368        H  0.32773872  0.24947496  0.61988687     0.18400
C369        C  0.56095476  0.66472299  0.89686870    -0.08100
C370        C  0.55365534  0.62640995  0.86433390    -0.09600
C371        C  0.59717276  0.86506340  0.83365891    -0.08100
C372        C  0.61266520  0.90064732  0.86878770    -0.09600
C373        C  0.58044449  0.76955198  0.83449729    -0.11200
C374        C  0.54121123  0.75954265  0.88756466    -0.26400
H375        H  0.61780424  0.74026980  0.82279464     0.17800
H376        H  0.50461141  0.78901285  0.89969588     0.18400
C377        C  0.41265588  0.65729428  0.58559506    -0.08100
C378        C  0.43084208  0.62021214  0.62052431    -0.09600
C379        C  0.62496095  0.72491621  0.96906489    -0.11200
C380        C  0.32372798  0.69057587  0.51095171    -0.26400
H381        H  0.64694510  0.76404394  0.96073365     0.17800
H382        H  0.30181344  0.65141481  0.51946145     0.18400
C383        C  0.50554239  0.69981975  0.98830121    -0.11200
C384        C  0.44259381  0.71983846  0.49188526    -0.26400
H385        H  0.52060159  0.66900619  0.02411942     0.17800
H386        H  0.42731996  0.75092302  0.45686647     0.18400
C387        C  0.40934120  0.85093479  0.64936949    -0.08100
C388        C  0.40235794  0.88974646  0.61374153    -0.09600
C389        C  0.48012320  0.79461985  0.72139542    -0.11200
C390        C  0.50806006  0.82916824  0.76285254    -0.26400
H391        H  0.50896151  0.75978501  0.71044600     0.17800
H392        H  0.47977459  0.86408288  0.77443369     0.18400
C393        C  0.62783611  0.81795523  0.73619015    -0.11200
C394        C  0.36037096  0.80660758  0.74688641    -0.26400
H395        H  0.60940401  0.82387142  0.68536517     0.17800
H396        H  0.37881520  0.80096436  0.79776341     0.18400
C397        C  0.38312283  0.75256773  0.58653533    -0.11200
C398        C  0.39301052  0.75287377  0.65284334    -0.26400
H399        H  0.37511496  0.78965702  0.55912293     0.17800
H400        H  0.39661710  0.71578330  0.68121599     0.18400
C401        C  0.74224628  0.80203751  0.19156879     0.02700
C402        C  0.72500137  0.70482384  0.04468423     0.02700
C403        C  0.91072652  0.82069241  0.29258587     0.02700
C404        C  0.88986889  0.71240785  0.43477956     0.02700
C405        C  0.75534469  0.19442527  0.19807736     0.02700
C406        C  0.72673599  0.31107171  0.06623313     0.02700
C407        C  0.92690978  0.22007388  0.30808185     0.02700
C408        C  0.89109536  0.31064692  0.45580766     0.02700
O409        O  0.85106546  0.45476129  0.17129967    -0.69200
O410        O  0.91051176  0.56553458  0.28292187    -0.69200
O411        O  0.91225138  0.45853966  0.29216199    -0.69300
O412        O  0.84928155  0.56210248  0.16218861    -0.69300
O413        O  0.74685380  0.56090782  0.20823046    -0.69300
O414        O  0.80965036  0.45807675  0.33784920    -0.69300
O415        O  0.80782383  0.56449424  0.32845421    -0.69200
O416        O  0.74872315  0.45403003  0.21745240    -0.69300
Ni417      Ni  0.88451406  0.51024602  0.22538643     1.25400
Ni418      Ni  0.77464920  0.50933019  0.27459684     1.25400
C419        C  0.79046946  0.43589038  0.17682914     0.93000
C420        C  0.86837894  0.58333824  0.32349375     0.92900
C421        C  0.87076668  0.44120508  0.33592408     0.92900
C422        C  0.78811261  0.57900545  0.16481224     0.93100
O423        O  0.98801407  0.95207647  0.07662352    -0.69200
O424        O  0.92730224  0.06399496  0.45918720    -0.69200
O425        O  0.92607275  0.95708388  0.45617764    -0.69300
O426        O  0.99178706  0.05841562  0.07930102    -0.69300
O427        O  0.76032525  0.05954278  0.03070535    -0.69300
O428        O  0.69476302  0.95881638  0.40783294    -0.69300
O429        O  0.69565211  0.06588532  0.41012544    -0.69200
O430        O  0.75699626  0.95292971  0.02863743    -0.69300
Ni431      Ni  0.95456332  0.00807660  0.01967067     1.25400
Ni432      Ni  0.73109497  0.00935977  0.46693985     1.25400
C433        C  0.71525229  0.93372726  0.07117484     0.93000
C434        C  0.96776811  0.08412952  0.41644807     0.92900
C435        C  0.96654671  0.94121809  0.41268624     0.92900
C436        C  0.72027587  0.07515627  0.07438905     0.93100
C437        C  0.89759635  0.36145270  0.41829988    -0.08100
C438        C  0.89128643  0.40006475  0.38228003    -0.09600
C439        C  0.93113743  0.16866622  0.34481067    -0.08100
C440        C  0.94526412  0.12861059  0.37598655    -0.09600
C441        C  0.92486529  0.26282435  0.35808752    -0.11200
C442        C  0.87721679  0.26867310  0.40471021    -0.26400
H443        H  0.96775634  0.29038652  0.35887173     0.17800
H444        H  0.83317501  0.24253016  0.40655651     0.18400
C445        C  0.75031513  0.35602064  0.10557237    -0.08100
C446        C  0.76894922  0.39282095  0.13744510    -0.09600
C447        C  0.95722216  0.29562557  0.49230383    -0.11200
C448        C  0.66115623  0.32799039  0.03054681    -0.26400
H449        H  0.97664570  0.25610615  0.48715190     0.17800
H450        H  0.64201681  0.36754546  0.03615544     0.18400
C451        C  0.83797708  0.31984613  0.50750936    -0.11200
C452        C  0.77873069  0.29540004  0.01484622    -0.26400
H453        H  0.85212824  0.35082705  0.54055456     0.17400
H454        H  0.76443765  0.26360771  0.98325896     0.18400
C455        C  0.75723592  0.14885009  0.15583998    -0.08100
C456        C  0.74450319  0.11368253  0.11924938    -0.09600
C457        C  0.81419319  0.18915927  0.25047797    -0.11200
C458        C  0.86475594  0.22573032  0.26057860    -0.26400
H459        H  0.81544632  0.15256103  0.28007991     0.17800
H460        H  0.86237667  0.26370288  0.23445367     0.18400
C461        C  0.68500637  0.19099378  0.23019189    -0.11200
C462        C  0.99415708  0.22776996  0.27034505    -0.26400
H463        H  0.65228506  0.15692762  0.22135976     0.17800
H464        H  0.02690868  0.26177777  0.27876437     0.18400
C465        C  0.76363160  0.24274946  0.15156447    -0.11200
C466        C  0.71281217  0.26477540  0.11428281    -0.26400
H467        H  0.81502384  0.25569254  0.13976089     0.17800
H468        H  0.66094847  0.24971866  0.11922497     0.18400
C469        C  0.89439243  0.66467648  0.39621434    -0.08100
C470        C  0.88787106  0.62651135  0.36326884    -0.09600
C471        C  0.92935314  0.86519200  0.33416267    -0.08100
C472        C  0.94456148  0.90077748  0.36941213    -0.09600
C473        C  0.91293003  0.76963515  0.33445562    -0.11200
C474        C  0.87370784  0.75939716  0.38743250    -0.26400
H475        H  0.95030900  0.74042420  0.32257452     0.17800
H476        H  0.83722171  0.78888135  0.39974681     0.18400
C477        C  0.74703344  0.65777119  0.08530519    -0.08100
C478        C  0.76570867  0.62054484  0.11969711    -0.09600
C479        C  0.95733934  0.72496029  0.46910714    -0.11200
C480        C  0.65797544  0.69073188  0.01067407    -0.26400
H481        H  0.97920394  0.76413515  0.46082527     0.17800
H482        H  0.63627107  0.65149363  0.01913367     0.18400
C483        C  0.83791489  0.69916131  0.48764384    -0.11200
C484        C  0.77667448  0.72059580  0.99195080    -0.26400
H485        H  0.85258697  0.66780426  0.52286350     0.17800
H486        H  0.76125616  0.75156215  0.95682072     0.18400
C487        C  0.74164616  0.85116709  0.14968018    -0.08100
C488        C  0.73458185  0.88997911  0.11407950    -0.09600
C489        C  0.81266186  0.79487785  0.22149674    -0.11200
C490        C  0.84046526  0.82935991  0.26310029    -0.26400
H491        H  0.84163895  0.76014581  0.21040243     0.17800
H492        H  0.81205348  0.86417487  0.27483411     0.18400
C493        C  0.96028368  0.81829582  0.23647368    -0.11200
C494        C  0.69286637  0.80652995  0.24705997    -0.26400
H495        H  0.94185864  0.82444177  0.18567813     0.17800
H496        H  0.71130832  0.80072150  0.29791535     0.18400
C497        C  0.71651878  0.75287112  0.08647780    -0.11200
C498        C  0.72582251  0.75306550  0.15283787    -0.26400
H499        H  0.70851963  0.78998082  0.05910927     0.17800
H500        H  0.72942743  0.71592117  0.18110233     0.18400
C501        C  0.74321742  0.80207056  0.69158679     0.02700
C502        C  0.72410036  0.70470002  0.54488852     0.02700
C503        C  0.91159897  0.82112343  0.79267787     0.02700
C504        C  0.89080691  0.71257164  0.93469722     0.02700
C505        C  0.75666805  0.19451175  0.69756462     0.02700
C506        C  0.72507836  0.31130300  0.56670716     0.02700
C507        C  0.92844223  0.22003967  0.80755710     0.02700
C508        C  0.89278939  0.31069170  0.95525626     0.02700
O509        O  0.84944612  0.45476547  0.67167164    -0.69200
O510        O  0.90991129  0.56574675  0.78249215    -0.69200
O511        O  0.91166896  0.45879458  0.79199652    -0.69300
O512        O  0.84776996  0.56199866  0.66223950    -0.69300
O513        O  0.74575994  0.56111797  0.70910216    -0.69300
O514        O  0.80944320  0.45829739  0.83843675    -0.69300
O515        O  0.80768746  0.56474827  0.82894475    -0.69200
O516        O  0.74743096  0.45422015  0.71845546    -0.69300
Ni517      Ni  0.88340080  0.51033406  0.72533126     1.25400
Ni518      Ni  0.77396076  0.50955505  0.77537999     1.25400
C519        C  0.78884027  0.43600389  0.67755753     0.93000
C520        C  0.86819582  0.58358499  0.82343253     0.92900
C521        C  0.87055414  0.44145555  0.83606021     0.92900
C522        C  0.78671169  0.57899633  0.66526133     0.93100
O523        O  0.98922351  0.95201125  0.57595248    -0.69200
O524        O  0.92731920  0.06441935  0.95968508    -0.69200
O525        O  0.92579135  0.95749335  0.95640065    -0.69300
O526        O  0.99281878  0.05835868  0.57825884    -0.69300
O527        O  0.76133206  0.05953113  0.52943038    -0.69300
O528        O  0.69516744  0.95935582  0.90800969    -0.69300
O529        O  0.69620314  0.06641552  0.91079968    -0.69200
O530        O  0.75810437  0.95274528  0.52782848    -0.69300
Ni531      Ni  0.95522421  0.00783268  0.51907602     1.25400
Ni532      Ni  0.73081049  0.00967853  0.96771072     1.25400
C533        C  0.71684927  0.93360762  0.57088164     0.93000
C534        C  0.96822342  0.08451550  0.91729745     0.92900
C535        C  0.96659317  0.94164430  0.91317709     0.92900
C536        C  0.72176818  0.07522013  0.57351845     0.93100
C537        C  0.89860992  0.36159045  0.91787791    -0.08100
C538        C  0.89156150  0.40029899  0.88216645    -0.09600
C539        C  0.93237533  0.16879284  0.84471703    -0.08100
C540        C  0.94615209  0.12892307  0.87645233    -0.09600
C541        C  0.92641674  0.26302620  0.85727911    -0.11200
C542        C  0.87896785  0.26874329  0.90412853    -0.26400
H543        H  0.96916413  0.29073196  0.85777581     0.17800
H544        H  0.83513929  0.24239958  0.90622226     0.18400
C545        C  0.74849266  0.35628334  0.60609428    -0.08100
C546        C  0.76699350  0.39301270  0.63816688    -0.09600
C547        C  0.95918728  0.29595564  0.99141426    -0.11200
C548        C  0.65910644  0.32796580  0.53151337    -0.26400
H549        H  0.97864931  0.25644324  0.98631146     0.17800
H550        H  0.64002862  0.36755900  0.53696892     0.18400
C551        C  0.83984598  0.31949620  0.00726977    -0.11200
C552        C  0.77675062  0.29595164  0.51491209    -0.26400
H553        H  0.85392016  0.35055361  0.04022831     0.17400
H554        H  0.76234675  0.26423935  0.48323566     0.18400
C555        C  0.75862454  0.14913604  0.65486184    -0.08100
C556        C  0.74623644  0.11397976  0.61808579    -0.09600
C557        C  0.81582341  0.18920547  0.74967423    -0.11200
C558        C  0.86644445  0.22571097  0.75979390    -0.26400
H559        H  0.81711597  0.15259293  0.77924235     0.17800
H560        H  0.86424798  0.26362333  0.73352579     0.18400
C561        C  0.68667013  0.19081669  0.73022744    -0.11200
C562        C  0.99576715  0.22736515  0.76995108    -0.26400
H563        H  0.65418384  0.15655722  0.72178852     0.17800
H564        H  0.02844886  0.26148297  0.77797419     0.18400
C565        C  0.76387839  0.24316481  0.65143848    -0.11200
C566        C  0.71232264  0.26475805  0.61462079    -0.26400
H567        H  0.81493067  0.25691130  0.63965280     0.17800
H568        H  0.66078154  0.24906752  0.61970115     0.18400
C569        C  0.89505913  0.66491454  0.89595972    -0.08100
C570        C  0.88813761  0.62676536  0.86303401    -0.09600
C571        C  0.92997560  0.86570927  0.83424537    -0.08100
C572        C  0.94489883  0.90128782  0.86962723    -0.09600
C573        C  0.91406755  0.77007779  0.83460161    -0.11200
C574        C  0.87480939  0.75971855  0.88752518    -0.26400
H575        H  0.95154399  0.74093973  0.82272846     0.17800
H576        H  0.83818368  0.78911228  0.89978720     0.18400
C577        C  0.74596531  0.65762325  0.58547687    -0.08100
C578        C  0.76423850  0.62041004  0.62005925    -0.09600
C579        C  0.95831801  0.72484389  0.96910987    -0.11200
C580        C  0.65699684  0.69056959  0.51098897    -0.26400
H581        H  0.98034795  0.76396876  0.96089717     0.17800
H582        H  0.63539634  0.65129602  0.51944360     0.18400
C583        C  0.83883348  0.69934192  0.98751533    -0.11200
C584        C  0.77571559  0.72036661  0.49204693    -0.26400
H585        H  0.85343448  0.66789183  0.02261997     0.17800
H586        H  0.76026142  0.75128696  0.45686096     0.18400
C587        C  0.74300543  0.85108648  0.64946651    -0.08100
C588        C  0.73642715  0.88986395  0.61370266    -0.09600
C589        C  0.81357339  0.79490304  0.72168856    -0.11200
C590        C  0.84129385  0.82953265  0.76318527    -0.26400
H591        H  0.84256146  0.76013979  0.71075959     0.17800
H592        H  0.81280598  0.86435695  0.77473916     0.18400
C593        C  0.96109262  0.81887556  0.73648011    -0.11200
C594        C  0.69379025  0.80676941  0.74702626    -0.26400
H595        H  0.94257485  0.82496557  0.68570565     0.17800
H596        H  0.71220230  0.80117127  0.79791910     0.18400
C597        C  0.71600501  0.75277473  0.58675798    -0.11200
C598        C  0.72655595  0.75305235  0.65300345    -0.26400
H599        H  0.70741596  0.78984295  0.55947018     0.17800
H600        H  0.73062768  0.71595170  0.68129262     0.18400
loop_ 
_geom_bond_atom_site_label_1 
_geom_bond_atom_site_label_2 
_geom_bond_distance 
_geom_bond_site_symmetry_2 
_ccdc_geom_bond_type 
C1           C87   1.480       .  S
C1           C89   1.503       .  S
C1           C94   1.512       .  S
C1           C98   1.527       .  S
C2           C77   1.486       .  S
C2           C80   1.514   1_455  S
C2           C84   1.530   1_554  S
C2           C97   1.529       .  S
C3           C71   1.476       .  S
C3           C73   1.521       .  S
C3           C90   1.502       .  S
C3           C93   1.518       .  S
C4           C69   1.476       .  S
C4           C74   1.532       .  S
C4           C79   1.515       .  S
C4           C83   1.521       .  S
C5           C55   1.471       .  S
C5           C57   1.551       .  S
C5           C61   1.540       .  S
C5           C65   1.528       .  S
C6           C45   1.484       .  S
C6           C48   1.517   1_455  S
C6           C52   1.544       .  S
C6           C66   1.523       .  S
C7           C39   1.479       .  S
C7           C41   1.519       .  S
C7           C58   1.538       .  S
C7           C62   1.546       .  S
C8           C37   1.477       .  S
C8           C42   1.535       .  S
C8           C47   1.520       .  S
C8           C51   1.523       .  S
O9          Ni17   1.922       .  S
O9           C19   1.281       .  A
O10         Ni17   1.920       .  S
O10          C20   1.280       .  A
O11         Ni17   1.920       .  S
O11          C21   1.280       .  A
O12         Ni17   1.921       .  S
O12          C22   1.281       .  A
O13         Ni18   1.913       .  S
O13          C22   1.279       .  A
O14         Ni18   1.910       .  S
O14          C21   1.279       .  A
O15         Ni18   1.912       .  S
O15          C20   1.279       .  A
O16         Ni18   1.915       .  S
O16          C19   1.279       .  A
Ni17        Ni18   2.395       .  S
C19          C46   1.435       .  S
C20          C70   1.432       .  S
C21          C38   1.431       .  S
C22          C78   1.434       .  S
O23         Ni31   1.906   1_565  S
O23         C233   1.277       .  A
O24        Ni131   1.911       .  S
O24          C34   1.277       .  A
O25        Ni131   1.924   1_565  S
O25          C35   1.282       .  A
O26         Ni31   1.922       .  S
O26         C236   1.282       .  A
O27        Ni132   1.912   1_554  S
O27          C36   1.277       .  A
O28         Ni32   1.912   1_565  S
O28         C435   1.278   1_455  A
O29         Ni32   1.927       .  S
O29         C434   1.283   1_455  A
O30        Ni132   1.924   1_564  S
O30          C33   1.281       .  A
Ni31        O124   1.911   1_554  S
Ni31        O125   1.923   1_544  S
Ni31       Ni332   2.395   1_554  S
Ni32        O127   1.913       .  S
Ni32        O130   1.926   1_545  S
Ni32       Ni531   2.395   1_455  S
C33         O423   1.277   1_455  A
C33          C88   1.431       .  S
C34         O229   1.283       .  A
C34          C40   1.436       .  S
C35         O228   1.278       .  A
C35          C72   1.435       .  S
C36         O426   1.282   1_455  A
C36          C56   1.433       .  S
C37          C38   1.204       .  T
C39          C40   1.207       .  T
C41          C42   1.359       .  D
C41          H43   1.088       .  S
C42          H44   1.083       .  S
C45          C46   1.207       .  T
C47         C348   1.343       .  D
C47          H49   1.088       .  S
C48         C547   1.342   1_554  D
C48          H50   1.089       .  S
C51         C152   1.348       .  D
C51          H53   1.084       .  S
C52         C151   1.348       .  D
C52          H54   1.082   1_554  S
C55          C56   1.205       .  T
C57          C58   1.367       .  D
C57          H59   1.086       .  S
C58          H60   1.082       .  S
C61         C462   1.345   1_455  D
C61          H63   1.090   1_455  S
C62         C261   1.345       .  D
C62          H64   1.087       .  S
C65          C66   1.348       .  D
C65          H67   1.085       .  S
C66          H68   1.087   1_455  S
C69          C70   1.205       .  T
C71          C72   1.206       .  T
C73          C74   1.352       .  D
C73          H75   1.087       .  S
C74          H76   1.083       .  S
C77          C78   1.207       .  T
C79         C380   1.345       .  D
C79          H81   1.087       .  S
C80         C579   1.345   1_554  D
C80          H82   1.088       .  S
C83         C184   1.345       .  D
C83          H85   1.084       .  S
C84         C183   1.344       .  D
C84          H86   1.080       .  S
C87          C88   1.204       .  T
C89          C90   1.344       .  D
C89          H91   1.090       .  S
C90          H92   1.089       .  S
C93         C294   1.337       .  D
C93          H95   1.089       .  S
C94         C493   1.337   1_455  D
C94          H96   1.089       .  S
C97          C98   1.354       .  D
C97          H99   1.085       .  S
C98         H100   1.086       .  S
C101        C187   1.481       .  S
C101        C189   1.503       .  S
C101        C194   1.512       .  S
C101        C198   1.527       .  S
C102        C177   1.485       .  S
C102        C180   1.514   1_455  S
C102        C184   1.530       .  S
C102        C197   1.529       .  S
C103        C171   1.476       .  S
C103        C173   1.522       .  S
C103        C190   1.502       .  S
C103        C193   1.518       .  S
C104        C169   1.475       .  S
C104        C174   1.532       .  S
C104        C179   1.515       .  S
C104        C183   1.522       .  S
C105        C155   1.472       .  S
C105        C157   1.551       .  S
C105        C161   1.539       .  S
C105        C165   1.527       .  S
C106        C145   1.483       .  S
C106        C148   1.517   1_455  S
C106        C152   1.543       .  S
C106        C166   1.522       .  S
C107        C139   1.479       .  S
C107        C141   1.520       .  S
C107        C158   1.538       .  S
C107        C162   1.546       .  S
C108        C137   1.477       .  S
C108        C142   1.536       .  S
C108        C147   1.520       .  S
C108        C151   1.524   1_556  S
O109       Ni117   1.922       .  S
O109        C119   1.281       .  A
O110       Ni117   1.920       .  S
O110        C120   1.280       .  A
O111       Ni117   1.920       .  S
O111        C121   1.280       .  A
O112       Ni117   1.921       .  S
O112        C122   1.281       .  A
O113       Ni118   1.913       .  S
O113        C122   1.278       .  A
O114       Ni118   1.911       .  S
O114        C121   1.279       .  A
O115       Ni118   1.911       .  S
O115        C120   1.279       .  A
O116       Ni118   1.914       .  S
O116        C119   1.279       .  A
Ni117      Ni118   2.395       .  S
C119        C146   1.435       .  S
C120        C170   1.431       .  S
C121        C138   1.431       .  S
C122        C178   1.433       .  S
O123       Ni131   1.906   1_565  S
O123        C333   1.277       .  A
O124        C134   1.277       .  A
O125        C135   1.282       .  A
O126       Ni131   1.923       .  S
O126        C336   1.282       .  A
O127        C136   1.277       .  A
O128       Ni132   1.912   1_565  S
O128        C535   1.278   1_455  A
O129       Ni132   1.926       .  S
O129        C534   1.283   1_455  A
O130        C133   1.282       .  A
Ni131      Ni232   2.395       .  S
Ni132      Ni431   2.395   1_456  S
C133        O523   1.277   1_455  A
C133        C188   1.432       .  S
C134        O329   1.283       .  A
C134        C140   1.436       .  S
C135        O328   1.278       .  A
C135        C172   1.435       .  S
C136        O526   1.282   1_455  A
C136        C156   1.434       .  S
C137        C138   1.205       .  T
C139        C140   1.207       .  T
C141        C142   1.360       .  D
C141        H143   1.088       .  S
C142        H144   1.083       .  S
C145        C146   1.207       .  T
C147        C248   1.342   1_556  D
C147        H149   1.088       .  S
C148        C447   1.342       .  D
C148        H150   1.089       .  S
C151        H153   1.085       .  S
C152        H154   1.082       .  S
C155        C156   1.206       .  T
C157        C158   1.367       .  D
C157        H159   1.086       .  S
C158        H160   1.082       .  S
C161        C562   1.345   1_455  D
C161        H163   1.089   1_455  S
C162        C361   1.345       .  D
C162        H164   1.087       .  S
C165        C166   1.349       .  D
C165        H167   1.085       .  S
C166        H168   1.087   1_455  S
C169        C170   1.205       .  T
C171        C172   1.206       .  T
C173        C174   1.352       .  D
C173        H175   1.087       .  S
C174        H176   1.083       .  S
C177        C178   1.206       .  T
C179        C280   1.345   1_556  D
C179        H181   1.087       .  S
C180        C479   1.345       .  D
C180        H182   1.088       .  S
C183        H185   1.084   1_556  S
C184        H186   1.080       .  S
C187        C188   1.205       .  T
C189        C190   1.343       .  D
C189        H191   1.090       .  S
C190        H192   1.089       .  S
C193        C394   1.337       .  D
C193        H195   1.089       .  S
C194        C593   1.337   1_455  D
C194        H196   1.089       .  S
C197        C198   1.355       .  D
C197        H199   1.085       .  S
C198        H200   1.086       .  S
C201        C287   1.480       .  S
C201        C289   1.503       .  S
C201        C294   1.512       .  S
C201        C298   1.527       .  S
C202        C277   1.486       .  S
C202        C280   1.514       .  S
C202        C284   1.530   1_554  S
C202        C297   1.529       .  S
C203        C271   1.477       .  S
C203        C273   1.521       .  S
C203        C290   1.502       .  S
C203        C293   1.518       .  S
C204        C269   1.476       .  S
C204        C274   1.532       .  S
C204        C279   1.515       .  S
C204        C283   1.523       .  S
C205        C255   1.472       .  S
C205        C257   1.551       .  S
C205        C261   1.539       .  S
C205        C265   1.527       .  S
C206        C245   1.483       .  S
C206        C248   1.517       .  S
C206        C252   1.543       .  S
C206        C266   1.523       .  S
C207        C239   1.479       .  S
C207        C241   1.519       .  S
C207        C258   1.538       .  S
C207        C262   1.547       .  S
C208        C237   1.477       .  S
C208        C242   1.536       .  S
C208        C247   1.520       .  S
C208        C251   1.524       .  S
O209       Ni217   1.923       .  S
O209        C219   1.281       .  A
O210       Ni217   1.921       .  S
O210        C220   1.280       .  A
O211       Ni217   1.921       .  S
O211        C221   1.280       .  A
O212       Ni217   1.922       .  S
O212        C222   1.281       .  A
O213       Ni218   1.912       .  S
O213        C222   1.278       .  A
O214       Ni218   1.909       .  S
O214        C221   1.278       .  A
O215       Ni218   1.911       .  S
O215        C220   1.279       .  A
O216       Ni218   1.914       .  S
O216        C219   1.279       .  A
Ni217      Ni218   2.395       .  S
C219        C246   1.435       .  S
C220        C270   1.432       .  S
C221        C238   1.431       .  S
C222        C278   1.434       .  S
O223       Ni231   1.906   1_565  S
O223        C433   1.277       .  A
O224       Ni331   1.910       .  S
O224        C234   1.277       .  A
O225       Ni331   1.924   1_565  S
O225        C235   1.282       .  A
O226       Ni231   1.922       .  S
O226        C436   1.282       .  A
O227       Ni332   1.913   1_554  S
O227        C236   1.277       .  A
O228       Ni232   1.912   1_565  S
O229       Ni232   1.928       .  S
O230       Ni332   1.925   1_564  S
O230        C233   1.282       .  A
Ni231       O324   1.910   1_554  S
Ni231       O325   1.923   1_544  S
Ni231      Ni532   2.395   1_554  S
Ni232       O327   1.913       .  S
Ni232       O330   1.926   1_545  S
C233        C288   1.431       .  S
C234        O429   1.283       .  A
C234        C240   1.436       .  S
C235        O428   1.278       .  A
C235        C272   1.435       .  S
C236        C256   1.434       .  S
C237        C238   1.204       .  T
C239        C240   1.207       .  T
C241        C242   1.360       .  D
C241        H243   1.088       .  S
C242        H244   1.083       .  S
C245        C246   1.207       .  T
C247        C548   1.343       .  D
C247        H249   1.088       .  S
C248        H250   1.089       .  S
C251        C352   1.347       .  D
C251        H253   1.085       .  S
C252        C351   1.347       .  D
C252        H254   1.082   1_554  S
C255        C256   1.206       .  T
C257        C258   1.368       .  D
C257        H259   1.086       .  S
C258        H260   1.082       .  S
C261        H263   1.089       .  S
C262        C461   1.344       .  D
C262        H264   1.087       .  S
C265        C266   1.348       .  D
C265        H267   1.085       .  S
C266        H268   1.087       .  S
C269        C270   1.205       .  T
C271        C272   1.207       .  T
C273        C274   1.352       .  D
C273        H275   1.087       .  S
C274        H276   1.083       .  S
C277        C278   1.207       .  T
C279        C580   1.345       .  D
C279        H281   1.088       .  S
C280        H282   1.088       .  S
C283        C384   1.345       .  D
C283        H285   1.084       .  S
C284        C383   1.344       .  D
C284        H286   1.080       .  S
C287        C288   1.205       .  T
C289        C290   1.344       .  D
C289        H291   1.090       .  S
C290        H292   1.089       .  S
C293        C494   1.337       .  D
C293        H295   1.089       .  S
C294        H296   1.089       .  S
C297        C298   1.354       .  D
C297        H299   1.085       .  S
C298        H300   1.086       .  S
C301        C387   1.481       .  S
C301        C389   1.503       .  S
C301        C394   1.512       .  S
C301        C398   1.527       .  S
C302        C377   1.486       .  S
C302        C380   1.515       .  S
C302        C384   1.530       .  S
C302        C397   1.529       .  S
C303        C371   1.476       .  S
C303        C373   1.522       .  S
C303        C390   1.502       .  S
C303        C393   1.519       .  S
C304        C369   1.475       .  S
C304        C374   1.532       .  S
C304        C379   1.515       .  S
C304        C383   1.521       .  S
C305        C355   1.472       .  S
C305        C357   1.551       .  S
C305        C361   1.538       .  S
C305        C365   1.527       .  S
C306        C345   1.484       .  S
C306        C348   1.517       .  S
C306        C352   1.543       .  S
C306        C366   1.522       .  S
C307        C339   1.479       .  S
C307        C341   1.519       .  S
C307        C358   1.538       .  S
C307        C362   1.545       .  S
C308        C337   1.476       .  S
C308        C342   1.535       .  S
C308        C347   1.519       .  S
C308        C351   1.522   1_556  S
O309       Ni317   1.922       .  S
O309        C319   1.281       .  A
O310       Ni317   1.919       .  S
O310        C320   1.280       .  A
O311       Ni317   1.918       .  S
O311        C321   1.279       .  A
O312       Ni317   1.920       .  S
O312        C322   1.280       .  A
O313       Ni318   1.915       .  S
O313        C322   1.279       .  A
O314       Ni318   1.912       .  S
O314        C321   1.279       .  A
O315       Ni318   1.913       .  S
O315        C320   1.279       .  A
O316       Ni318   1.917       .  S
O316        C319   1.279       .  A
Ni317      Ni318   2.395       .  S
C319        C346   1.436       .  S
C320        C370   1.431       .  S
C321        C338   1.430       .  S
C322        C378   1.434       .  S
O323       Ni331   1.905   1_565  S
O323        C533   1.277       .  A
O324        C334   1.277       .  A
O325        C335   1.282       .  A
O326       Ni331   1.923       .  S
O326        C536   1.282       .  A
O327        C336   1.277       .  A
O328       Ni332   1.912   1_565  S
O329       Ni332   1.928       .  S
O330        C333   1.282       .  A
Ni331      Ni432   2.394       .  S
C333        C388   1.432       .  S
C334        O529   1.283       .  A
C334        C340   1.435       .  S
C335        O528   1.278       .  A
C335        C372   1.435       .  S
C336        C356   1.434       .  S
C337        C338   1.204       .  T
C339        C340   1.207       .  T
C341        C342   1.360       .  D
C341        H343   1.088       .  S
C342        H344   1.083       .  S
C345        C346   1.208       .  T
C347        C448   1.343   1_556  D
C347        H349   1.088       .  S
C348        H350   1.089       .  S
C351        H353   1.084       .  S
C352        H354   1.082       .  S
C355        C356   1.206       .  T
C357        C358   1.367       .  D
C357        H359   1.086       .  S
C358        H360   1.082       .  S
C361        H363   1.089       .  S
C362        C561   1.345       .  D
C362        H364   1.087       .  S
C365        C366   1.348       .  D
C365        H367   1.085       .  S
C366        H368   1.087       .  S
C369        C370   1.204       .  T
C371        C372   1.206       .  T
C373        C374   1.352       .  D
C373        H375   1.087       .  S
C374        H376   1.083       .  S
C377        C378   1.207       .  T
C379        C480   1.345   1_556  D
C379        H381   1.088       .  S
C380        H382   1.088       .  S
C383        H385   1.084   1_556  S
C384        H386   1.080       .  S
C387        C388   1.205       .  T
C389        C390   1.344       .  D
C389        H391   1.090       .  S
C390        H392   1.089       .  S
C393        C594   1.337       .  D
C393        H395   1.089       .  S
C394        H396   1.089       .  S
C397        C398   1.354       .  D
C397        H399   1.085       .  S
C398        H400   1.086       .  S
C401        C487   1.481       .  S
C401        C489   1.503       .  S
C401        C494   1.512       .  S
C401        C498   1.527       .  S
C402        C477   1.485       .  S
C402        C480   1.514       .  S
C402        C484   1.530   1_554  S
C402        C497   1.529       .  S
C403        C471   1.476       .  S
C403        C473   1.521       .  S
C403        C490   1.502       .  S
C403        C493   1.518       .  S
C404        C469   1.476       .  S
C404        C474   1.532       .  S
C404        C479   1.515       .  S
C404        C483   1.522       .  S
C405        C455   1.471       .  S
C405        C457   1.551       .  S
C405        C461   1.539       .  S
C405        C465   1.527       .  S
C406        C445   1.484       .  S
C406        C448   1.516       .  S
C406        C452   1.543       .  S
C406        C466   1.523       .  S
C407        C439   1.479       .  S
C407        C441   1.519       .  S
C407        C458   1.538       .  S
C407        C462   1.547       .  S
C408        C437   1.477       .  S
C408        C442   1.536       .  S
C408        C447   1.520       .  S
C408        C451   1.523       .  S
O409       Ni417   1.922       .  S
O409        C419   1.281       .  A
O410       Ni417   1.920       .  S
O410        C420   1.280       .  A
O411       Ni417   1.920       .  S
O411        C421   1.280       .  A
O412       Ni417   1.921       .  S
O412        C422   1.281       .  A
O413       Ni418   1.913       .  S
O413        C422   1.278       .  A
O414       Ni418   1.910       .  S
O414        C421   1.279       .  A
O415       Ni418   1.912       .  S
O415        C420   1.279       .  A
O416       Ni418   1.915       .  S
O416        C419   1.279       .  A
Ni417      Ni418   2.395       .  S
C419        C446   1.435       .  S
C420        C470   1.432       .  S
C421        C438   1.431       .  S
C422        C478   1.433       .  S
O423       Ni431   1.906   1_565  S
O424       Ni531   1.911       .  S
O424        C434   1.277       .  A
O425       Ni531   1.924   1_565  S
O425        C435   1.282       .  A
O426       Ni431   1.923       .  S
O427       Ni532   1.912   1_554  S
O427        C436   1.277       .  A
O428       Ni432   1.913   1_565  S
O429       Ni432   1.928       .  S
O430       Ni532   1.925   1_564  S
O430        C433   1.282       .  A
Ni431       O524   1.912   1_554  S
Ni431       O525   1.925   1_544  S
Ni432       O527   1.914       .  S
Ni432       O530   1.926   1_545  S
C433        C488   1.431       .  S
C434        C440   1.436       .  S
C435        C472   1.435       .  S
C436        C456   1.433       .  S
C437        C438   1.204       .  T
C439        C440   1.207       .  T
C441        C442   1.359       .  D
C441        H443   1.088       .  S
C442        H444   1.083       .  S
C445        C446   1.207       .  T
C447        H449   1.088       .  S
C448        H450   1.089       .  S
C451        C552   1.347       .  D
C451        H453   1.085       .  S
C452        C551   1.348       .  D
C452        H454   1.082   1_554  S
C455        C456   1.206       .  T
C457        C458   1.368       .  D
C457        H459   1.086       .  S
C458        H460   1.082       .  S
C461        H463   1.090       .  S
C462        H464   1.087   1_655  S
C465        C466   1.347       .  D
C465        H467   1.085       .  S
C466        H468   1.087       .  S
C469        C470   1.205       .  T
C471        C472   1.207       .  T
C473        C474   1.352       .  D
C473        H475   1.087       .  S
C474        H476   1.083       .  S
C477        C478   1.206       .  T
C479        H481   1.088       .  S
C480        H482   1.088       .  S
C483        C584   1.345       .  D
C483        H485   1.084       .  S
C484        C583   1.345       .  D
C484        H486   1.080       .  S
C487        C488   1.205       .  T
C489        C490   1.344       .  D
C489        H491   1.090       .  S
C490        H492   1.089       .  S
C493        H495   1.089       .  S
C494        H496   1.089       .  S
C497        C498   1.354       .  D
C497        H499   1.085       .  S
C498        H500   1.086       .  S
C501        C587   1.481       .  S
C501        C589   1.503       .  S
C501        C594   1.512       .  S
C501        C598   1.527       .  S
C502        C577   1.485       .  S
C502        C580   1.514       .  S
C502        C584   1.530       .  S
C502        C597   1.529       .  S
C503        C571   1.477       .  S
C503        C573   1.522       .  S
C503        C590   1.501       .  S
C503        C593   1.519       .  S
C504        C569   1.476       .  S
C504        C574   1.532       .  S
C504        C579   1.515       .  S
C504        C583   1.522       .  S
C505        C555   1.473       .  S
C505        C557   1.552       .  S
C505        C561   1.538       .  S
C505        C565   1.526       .  S
C506        C545   1.484       .  S
C506        C548   1.516       .  S
C506        C552   1.542       .  S
C506        C566   1.522       .  S
C507        C539   1.479       .  S
C507        C541   1.520       .  S
C507        C558   1.538       .  S
C507        C562   1.546       .  S
C508        C537   1.476       .  S
C508        C542   1.536       .  S
C508        C547   1.520       .  S
C508        C551   1.523   1_556  S
O509       Ni517   1.922       .  S
O509        C519   1.281       .  A
O510       Ni517   1.921       .  S
O510        C520   1.280       .  A
O511       Ni517   1.919       .  S
O511        C521   1.280       .  A
O512       Ni517   1.919       .  S
O512        C522   1.280       .  A
O513       Ni518   1.913       .  S
O513        C522   1.279       .  A
O514       Ni518   1.911       .  S
O514        C521   1.279       .  A
O515       Ni518   1.912       .  S
O515        C520   1.279       .  A
O516       Ni518   1.916       .  S
O516        C519   1.279       .  A
Ni517      Ni518   2.395       .  S
C519        C546   1.436       .  S
C520        C570   1.432       .  S
C521        C538   1.430       .  S
C522        C578   1.432       .  S
O523       Ni531   1.906   1_565  S
O524        C534   1.277       .  A
O525        C535   1.282       .  A
O526       Ni531   1.923       .  S
O527        C536   1.278       .  A
O528       Ni532   1.912   1_565  S
O529       Ni532   1.927       .  S
O530        C533   1.282       .  A
C533        C588   1.432       .  S
C534        C540   1.436       .  S
C535        C572   1.435       .  S
C536        C556   1.435       .  S
C537        C538   1.204       .  T
C539        C540   1.207       .  T
C541        C542   1.360       .  D
C541        H543   1.088       .  S
C542        H544   1.083       .  S
C545        C546   1.207       .  T
C547        H549   1.088       .  S
C548        H550   1.089       .  S
C551        H553   1.085       .  S
C552        H554   1.082       .  S
C555        C556   1.207       .  T
C557        C558   1.368       .  D
C557        H559   1.086       .  S
C558        H560   1.082       .  S
C561        H563   1.089       .  S
C562        H564   1.087   1_655  S
C565        C566   1.349       .  D
C565        H567   1.085       .  S
C566        H568   1.087       .  S
C569        C570   1.205       .  T
C571        C572   1.207       .  T
C573        C574   1.352       .  D
C573        H575   1.087       .  S
C574        H576   1.083       .  S
C577        C578   1.206       .  T
C579        H581   1.087       .  S
C580        H582   1.088       .  S
C583        H585   1.084   1_556  S
C584        H586   1.080       .  S
C587        C588   1.205       .  T
C589        C590   1.344       .  D
C589        H591   1.090       .  S
C590        H592   1.089       .  S
C593        H595   1.089       .  S
C594        H596   1.089       .  S
C597        C598   1.355       .  D
C597        H599   1.085       .  S
C598        H600   1.086       .  S
