geometry optimzed in LAMMPS
_audit_creation_date              2020-11-30 
_audit_creation_method            'lammps2cif' 
_symmetry_space_group_name_H-M    'P1' 
_symmetry_Int_Tables_number       1 
_symmetry_cell_setting            triclinic 
loop_ 
_symmetry_equiv_pos_as_xyz 
  x,y,z 
_cell_length_a                    40.751276887797204 
_cell_length_b                    40.85770647358879 
_cell_length_c                    40.72353007497486 
_cell_angle_alpha                 90.11882203835724 
_cell_angle_beta                  90.10264136169984 
_cell_angle_gamma                 89.94863098924446 
loop_ 
_atom_site_label 
_atom_site_type_symbol 
_atom_site_fract_x 
_atom_site_fract_y 
_atom_site_fract_z 
_atom_site_charge 
Fe1        Fe  0.25075633  0.80724229  0.50193030     1.65780
Fe2        Fe  0.19260037  0.74879655  0.49639924     1.73250
Fe3        Fe  0.17052279  0.82860428  0.49986060     1.54410
O4          O  0.19648987  0.85877025  0.53391944    -0.82030
O5          O  0.16766173  0.75640093  0.45373469    -0.80340
O6          O  0.24400566  0.83360936  0.54406055    -0.84540
O7          O  0.24583923  0.84845095  0.47364662    -0.79390
O8          O  0.14552536  0.80515162  0.53899063    -0.81170
O9          O  0.23329599  0.73630092  0.46973873    -0.83910
C10         C  0.22344866  0.86177937  0.45670115     0.96850
C11         C  0.22382261  0.85652032  0.54946879     1.04290
O12         O  0.20453014  0.79505835  0.49948408    -1.12900
O13         O  0.21726430  0.73783066  0.53847828    -0.75330
O14         O  0.26238886  0.76758808  0.53006815    -0.78810
O15         O  0.19318293  0.85420119  0.46072004    -0.79500
C16         C  0.24710079  0.74446493  0.54387127     0.95760
O17         O  0.26196750  0.78162473  0.46025553    -0.77460
O18         O  0.15018699  0.75325906  0.52340733    -0.82650
C19         C  0.14402690  0.77594958  0.44912841     0.98380
C20         C  0.13729215  0.77495993  0.54152221     1.04300
O21         O  0.14068851  0.80245759  0.46575196    -0.78300
C22         C  0.25651404  0.75146924  0.45603156     1.02600
Fe23       Fe  0.74541642  0.19492531  0.50068535     1.65780
Fe24       Fe  0.80263959  0.25382176  0.50217147     1.73250
Fe25       Fe  0.82543797  0.17390906  0.50274732     1.54420
O26         O  0.79748968  0.14449891  0.53654595    -0.82030
O27         O  0.83214253  0.24944626  0.46206310    -0.80340
O28         O  0.74974868  0.17017949  0.54344737    -0.84540
O29         O  0.75154034  0.15246637  0.47472142    -0.79390
O30         O  0.84998088  0.19633637  0.54296719    -0.81170
O31         O  0.76426948  0.26559907  0.47142483    -0.83910
C32         C  0.77440782  0.14004572  0.45801591     0.96850
C33         C  0.76944166  0.14751978  0.55099504     1.04290
O34         O  0.79161878  0.20736865  0.50185767    -1.12900
O35         O  0.77440106  0.26161585  0.54287859    -0.75330
O36         O  0.72993162  0.23507201  0.52675525    -0.78810
O37         O  0.80433347  0.14863394  0.46216383    -0.79500
C38         C  0.74395816  0.25616062  0.54469188     0.95760
O39         O  0.73925267  0.21901808  0.45751655    -0.77460
O40         O  0.84257661  0.24932204  0.53238716    -0.82650
C41         C  0.85471847  0.22909801  0.45573469     0.98380
C42         C  0.85664324  0.22658618  0.54797932     1.04300
O43         O  0.85598304  0.20067479  0.46936389    -0.78300
C44         C  0.74478071  0.24915869  0.45358716     1.02600
Fe45       Fe  0.80716137  0.74857570  0.50178556     1.65780
Fe46       Fe  0.74807279  0.80622633  0.49846888     1.73250
Fe47       Fe  0.82804848  0.82912053  0.49841625     1.54410
O48         O  0.85823386  0.80457015  0.53355462    -0.82030
O49         O  0.75300299  0.83214863  0.45610312    -0.80340
O50         O  0.83491191  0.75593201  0.54301020    -0.84540
O51         O  0.84754288  0.75327362  0.47235541    -0.79390
O52         O  0.80509379  0.85547488  0.53742617    -0.81170
O53         O  0.73499984  0.76559648  0.47186497    -0.83910
C54         C  0.86171672  0.77524940  0.45589908     0.96850
C55         C  0.85647476  0.77736976  0.54922488     1.04290
O56         O  0.79467862  0.79481904  0.49940419    -1.12900
O57         O  0.73968201  0.78110973  0.54062408    -0.75330
O58         O  0.76813050  0.73595673  0.53053868    -0.78810
O59         O  0.85431180  0.80560226  0.45960362    -0.79500
C60         C  0.74473622  0.75084168  0.54442686     0.95760
O61         O  0.77996215  0.73706912  0.46119789    -0.77460
O62         O  0.75242393  0.84801776  0.52608069    -0.82650
C63         C  0.77321011  0.85437438  0.44856017     0.98380
C64         C  0.77472294  0.86208093  0.54245323     1.04300
O65         O  0.80105476  0.85730057  0.46325477    -0.78300
C66         C  0.74927144  0.74149178  0.45864828     1.02600
Fe67       Fe  0.49823104  0.25283769  0.19321427     1.65780
Fe68       Fe  0.49584649  0.19569097  0.25208231     1.73250
Fe69       Fe  0.49783745  0.17251987  0.17194764     1.54420
O70         O  0.46304463  0.19853779  0.14247601    -0.82030
O71         O  0.53739889  0.16840679  0.24846992    -0.80340
O72         O  0.45727771  0.24825035  0.16480055    -0.84540
O73         O  0.52772151  0.24770674  0.15298472    -0.79390
O74         O  0.45847958  0.14636850  0.19408662    -0.81170
O75         O  0.52370638  0.23527857  0.26571873    -0.83910
C76         C  0.54303572  0.22474011  0.13911450     0.96850
C77         C  0.44920856  0.22689539  0.14358311     1.04290
O78         O  0.49706636  0.20665165  0.20535796    -1.12900
O79         O  0.45415124  0.22218470  0.25885600    -0.75330
O80         O  0.46935830  0.26713186  0.23216715    -0.78810
O81         O  0.53715976  0.19464941  0.14563580    -0.79500
C82         C  0.45231779  0.25255839  0.25355814     0.95760
O83         O  0.53974824  0.25937895  0.22014801    -0.77460
O84         O  0.46761815  0.15469469  0.24712533    -0.82650
C85         C  0.54640773  0.14696593  0.22792229     0.98380
C86         C  0.45271414  0.13993993  0.22430836     1.04300
O87         O  0.53282953  0.14431473  0.19938734    -0.78300
C88         C  0.54220002  0.25494765  0.25075618     1.02600
Fe89       Fe  0.74989939  0.49650796  0.19326699     1.65780
Fe90       Fe  0.80787187  0.51068497  0.25037603     1.73250
Fe91       Fe  0.82867839  0.50297062  0.17113903     1.54420
O92         O  0.80275856  0.46863451  0.14091191    -0.82030
O93         O  0.82884502  0.55375819  0.23827428    -0.80340
O94         O  0.76011843  0.45317792  0.17082935    -0.84540
O95         O  0.75338569  0.52227482  0.14967867    -0.79390
O96         O  0.85285062  0.46421199  0.19567208    -0.81170
O97         O  0.76535047  0.53604000  0.26120499    -0.83910
C98         C  0.77374279  0.54295175  0.13855319     0.96850
C99         C  0.77801125  0.44989885  0.14583208     1.04290
O100        O  0.79542293  0.50322087  0.20495116    -1.12900
O101        O  0.78707007  0.46855637  0.26525736    -0.75330
O102        O  0.74102799  0.47071129  0.23542209    -0.78810
O103        O  0.80419227  0.54174561  0.14681745    -0.79500
C104        C  0.75799612  0.46001877  0.25922100     0.95760
O105        O  0.73566726  0.53887930  0.21526265    -0.77460
O106        O  0.85190437  0.48506860  0.24618915    -0.82650
C107        C  0.85501762  0.55522403  0.22206468     0.98380
C108        C  0.86189893  0.46351981  0.22589329     1.04300
O109        O  0.85947860  0.53694942  0.19680660    -0.78300
C110        C  0.74123779  0.54680437  0.24470167     1.02600
Fe111      Fe  0.49664319  0.75040635  0.19712174     1.65780
Fe112      Fe  0.49369077  0.81124094  0.25391760     1.73250
Fe113      Fe  0.49866079  0.82994081  0.17202798     1.54410
O114        O  0.53425085  0.80251700  0.14548364    -0.82030
O115        O  0.45486518  0.84178784  0.24488804    -0.80340
O116        O  0.53841309  0.75405495  0.16995382    -0.84540
O117        O  0.46830232  0.75432171  0.15581822    -0.79390
O118        O  0.53691489  0.85630890  0.19593818    -0.81170
O119        O  0.46109046  0.77500262  0.26627656    -0.83910
C120        C  0.45492442  0.77651406  0.13894638     0.96850
C121        C  0.54718413  0.77395970  0.14796130     1.04290
O122        O  0.49630569  0.79739824  0.20756184    -1.12900
O123        O  0.53216534  0.78222039  0.26815774    -0.75330
O124        O  0.52490762  0.73841198  0.23685944    -0.78810
O125        O  0.46075200  0.80689687  0.14433508    -0.79500
C126        C  0.53775005  0.75251833  0.26132335     0.95760
O127        O  0.45488480  0.74177834  0.22329998    -0.77460
O128        O  0.52663541  0.84882834  0.24917231    -0.82650
C129        C  0.44800013  0.86134688  0.22178092     0.98380
C130        C  0.54254885  0.86237208  0.22633785     1.04300
O131        O  0.46304331  0.86098818  0.19417215    -0.78300
C132        C  0.44775886  0.75079056  0.25214646     1.02600
Fe133      Fe  0.19179780  0.50010603  0.25216318     1.65780
Fe134      Fe  0.24969020  0.50300609  0.19282032     1.73250
Fe135      Fe  0.16929197  0.49980988  0.17145374     1.54420
O136        O  0.14505298  0.45948814  0.19346649    -0.82030
O137        O  0.24314720  0.53085383  0.15156236    -0.80340
O138        O  0.15319736  0.46834706  0.24691396    -0.84540
O139        O  0.16091263  0.53901651  0.24779530    -0.79390
O140        O  0.19735548  0.46678876  0.14138774    -0.81170
O141        O  0.25672770  0.54478594  0.21956326    -0.83910
C142        C  0.13879967  0.54559037  0.22700643     0.96850
C143        C  0.13902012  0.45339511  0.22370640     1.04290
O144        O  0.20328722  0.50092195  0.20533524    -1.12900
O145        O  0.26488441  0.47607118  0.23204307    -0.75330
O146        O  0.22170449  0.46100490  0.26132317    -0.78810
O147        O  0.13821083  0.53262795  0.19818883    -0.79500
C148        C  0.25211241  0.46028441  0.25538666     0.95760
O149        O  0.22888118  0.53173578  0.26483083    -0.77460
O150        O  0.24629520  0.46125813  0.16548839    -0.82650
C151        C  0.21956571  0.54595164  0.13836777     0.98380
C152        C  0.22620215  0.45387454  0.14292455     1.04300
O153        O  0.18970848  0.54037225  0.14623436    -0.78300
C154        C  0.25055129  0.54809727  0.24985452     1.02600
Fe155      Fe  0.25205333  0.50286658  0.80902044     1.65780
Fe156      Fe  0.19542317  0.50356495  0.74871169     1.73250
Fe157      Fe  0.17053305  0.50221429  0.82809488     1.54420
O158        O  0.19567893  0.46770165  0.85820945    -0.82030
O159        O  0.16826431  0.54510220  0.75337098    -0.80340
O160        O  0.24603876  0.46215032  0.83707092    -0.84540
O161        O  0.24543186  0.53306015  0.84876484    -0.79390
O162        O  0.14560216  0.46309583  0.80412655    -0.81170
O163        O  0.23496581  0.53155396  0.73641764    -0.83910
C164        C  0.22174168  0.54790480  0.86217810     0.96850
C165        C  0.22395925  0.45385940  0.85717518     1.04290
O166        O  0.20582491  0.50300672  0.79560089    -1.12900
O167        O  0.22187430  0.46201719  0.74087287    -0.75330
O168        O  0.26604042  0.47324740  0.77063638    -0.78810
O169        O  0.19175018  0.54132527  0.85531644    -0.79500
C170        C  0.25187557  0.45785704  0.74754875     0.95760
O171        O  0.26235511  0.54356875  0.78213497    -0.77460
O172        O  0.15422874  0.47547831  0.75212487    -0.82650
C173        C  0.14522295  0.55125174  0.77323245     0.98380
C174        C  0.13932500  0.45905105  0.77351629     1.04300
O175        O  0.14190881  0.53637526  0.80079027    -0.78300
C176        C  0.25675367  0.54717089  0.75189099     1.02600
Fe177      Fe  0.49527004  0.74837824  0.80947344     1.65780
Fe178      Fe  0.50206786  0.80653069  0.75019369     1.73250
Fe179      Fe  0.49866463  0.82923577  0.83043913     1.54420
O180        O  0.46367033  0.80448983  0.86025406    -0.82030
O181        O  0.54332590  0.83379049  0.75731840    -0.80340
O182        O  0.45421716  0.75600683  0.83672595    -0.84540
O183        O  0.52485543  0.75296681  0.84995177    -0.79390
O184        O  0.46005422  0.85507030  0.80658990    -0.81170
O185        O  0.53135224  0.76730105  0.73966477    -0.83910
C186        C  0.54192611  0.77525241  0.86311614     0.96850
C187        C  0.44840372  0.77710455  0.85863538     1.04290
O188        O  0.49860224  0.79479321  0.79678919    -1.12900
O189        O  0.46194657  0.78006576  0.73751100    -0.75330
O190        O  0.46626093  0.73657784  0.77026945    -0.78810
O191        O  0.53732231  0.80569080  0.85665766    -0.79500
C192        C  0.45503338  0.75102420  0.74523866     0.95760
O193        O  0.53561643  0.73501419  0.78350215    -0.77460
O194        O  0.47193284  0.84696840  0.75372908    -0.82650
C195        C  0.54904482  0.85641693  0.77768394     0.98380
C196        C  0.45519824  0.86081282  0.77598332     1.04300
O197        O  0.53348576  0.85877714  0.80494650    -0.78300
C198        C  0.54278889  0.74251281  0.75438574     1.02600
Fe199      Fe  0.74285709  0.50512300  0.80376256     1.65780
Fe200      Fe  0.80290309  0.50237285  0.74596012     1.73250
Fe201      Fe  0.82281898  0.50406079  0.82761524     1.54420
O202        O  0.79545319  0.53757395  0.85741221    -0.82030
O203        O  0.83318563  0.46315482  0.75254665    -0.80340
O204        O  0.74827062  0.54624914  0.83156871    -0.84540
O205        O  0.74700614  0.47594568  0.84482154    -0.79390
O206        O  0.84891040  0.54354367  0.80532559    -0.81170
O207        O  0.76596828  0.47077078  0.73347651    -0.83910
C208        C  0.76942682  0.45994709  0.85917945     0.96850
C209        C  0.76737092  0.55182895  0.85537318     1.04290
O210        O  0.78971218  0.50383939  0.79248890    -1.12900
O211        O  0.77426109  0.54132310  0.73310740    -0.75330
O212        O  0.73032101  0.53420661  0.76456516    -0.78810
O213        O  0.79984669  0.46451240  0.85258553    -0.79500
C214        C  0.74481602  0.54737256  0.74053350     0.95760
O215        O  0.73308553  0.46426986  0.77676348    -0.77460
O216        O  0.84113557  0.53435981  0.75190268    -0.82650
C217        C  0.85377443  0.45613893  0.77466025     0.98380
C218        C  0.85483627  0.54996200  0.77499600     1.04300
O219        O  0.85382350  0.47002706  0.80291326    -0.78300
C220        C  0.74188023  0.45746983  0.74777147     1.02600
Fe221      Fe  0.49546791  0.19476460  0.74852834     1.65780
Fe222      Fe  0.50178704  0.25308782  0.80693471     1.73250
Fe223      Fe  0.49857244  0.17324064  0.82878670     1.54420
O224        O  0.46462376  0.14282674  0.80269528    -0.82030
O225        O  0.54402902  0.24564275  0.83258108    -0.80340
O226        O  0.45383539  0.16864187  0.75588718    -0.84540
O227        O  0.52408731  0.15375526  0.75293442    -0.79390
O228        O  0.45937671  0.19668069  0.85417160    -0.81170
O229        O  0.52946075  0.26502395  0.76693326    -0.83910
C230        C  0.54188842  0.14112868  0.77497103     0.96850
C231        C  0.44935541  0.14494924  0.77515219     1.04290
O232        O  0.49860016  0.20688564  0.79486373    -1.12900
O233        O  0.45983166  0.26436120  0.78206542    -0.75330
O234        O  0.46663530  0.23408760  0.73695533    -0.78810
O235        O  0.53789175  0.14799189  0.80550902    -0.79500
C236        C  0.45305322  0.25713599  0.75263319     0.95760
O237        O  0.53682570  0.22001147  0.73688994    -0.77460
O238        O  0.47427950  0.24866913  0.84869620    -0.82650
C239        C  0.54876987  0.22623315  0.85627877     0.98380
C240        C  0.45678241  0.22702569  0.86213382     1.04300
O241        O  0.53262098  0.19939348  0.85894601    -0.78300
C242        C  0.54289062  0.24951450  0.74370230     1.02600
Fe243      Fe  0.25054436  0.19623620  0.50085170     1.65780
Fe244      Fe  0.19092537  0.25365469  0.50083977     1.73250
Fe245      Fe  0.17021550  0.17334959  0.50220252     1.54420
O246        O  0.19662705  0.14386021  0.46787631    -0.82030
O247        O  0.16336620  0.24944680  0.54239952    -0.80340
O248        O  0.24511035  0.16800956  0.45983875    -0.84540
O249        O  0.24642148  0.15555761  0.52995384    -0.79390
O250        O  0.14364004  0.19480943  0.46249352    -0.81170
O251        O  0.23065170  0.26741700  0.52850122    -0.83910
C252        C  0.22399824  0.14157665  0.54604328     0.96850
C253        C  0.22449099  0.14571855  0.45321223     1.04290
O254        O  0.20363513  0.20746801  0.50149556    -1.12900
O255        O  0.21677004  0.26143339  0.45903464    -0.75330
O256        O  0.26298802  0.23536503  0.47172695    -0.78810
O257        O  0.19359047  0.14846511  0.54173688    -0.79500
C258        C  0.24712123  0.25662112  0.45566141     0.95760
O259        O  0.25988470  0.22366495  0.54188289    -0.77460
O260        O  0.15015705  0.24802927  0.47198806    -0.82650
C261        C  0.14205764  0.22826052  0.55008312     0.98380
C262        C  0.13692674  0.22484951  0.45633681     1.04300
O263        O  0.14080241  0.19976806  0.53665575    -0.78300
C264        C  0.25426824  0.25405165  0.54372824     1.02600
C265        C  0.36758020  0.33072257  0.67076841     0.02770
C266        C  0.35839060  0.32094349  0.63922944    -0.13380
C267        C  0.33599101  0.33971928  0.62041612     0.00270
C268        C  0.32764388  0.37084368  0.63283756    -0.11900
C269        C  0.33432456  0.37895355  0.66558142     0.02760
C270        C  0.35452747  0.35895801  0.68424644    -0.11330
H271        H  0.36756221  0.29764148  0.63088091     0.08360
H272        H  0.31434979  0.38849159  0.61865000     0.05890
H273        H  0.35889427  0.36446719  0.70995727     0.05730
C274        C  0.37096219  0.33235770  0.33349001     0.02770
C275        C  0.36520823  0.36504568  0.32547687    -0.13380
C276        C  0.33495591  0.37955527  0.33326035     0.00270
C277        C  0.31422059  0.36257085  0.35520584    -0.11900
C278        C  0.32286478  0.33176910  0.36697502     0.02760
C279        C  0.35080302  0.31623113  0.35552027    -0.11330
H280        H  0.38342771  0.37741672  0.31111258     0.08360
H281        H  0.29026008  0.37183054  0.36185491     0.05890
H282        H  0.35555238  0.29088225  0.36188189     0.05730
C283        C  0.62235406  0.33327271  0.66725351     0.02770
C284        C  0.63551986  0.32130534  0.63815747    -0.13380
C285        C  0.66095629  0.33803268  0.62271817     0.00270
C286        C  0.67193801  0.36776741  0.63555892    -0.11900
C287        C  0.66032915  0.37859037  0.66600331     0.02760
C288        C  0.63491215  0.36166585  0.68147974    -0.11330
H289        H  0.62876200  0.29693897  0.62999015     0.08360
H290        H  0.69296433  0.37968923  0.62451790     0.05890
H291        H  0.62719751  0.36859038  0.70600174     0.05730
C292        C  0.66264316  0.62877219  0.66069381     0.02770
C293        C  0.67466197  0.64406342  0.63258574    -0.13380
C294        C  0.65751445  0.67010008  0.61820578     0.00270
C295        C  0.62834475  0.68121574  0.63278646    -0.11900
C296        C  0.61844089  0.66847704  0.66305522     0.02760
C297        C  0.63380401  0.64044360  0.67519329    -0.11330
H298        H  0.69894682  0.63772251  0.62380620     0.08360
H299        H  0.61594209  0.70251069  0.62293767     0.05890
H300        H  0.62602406  0.63041741  0.69854664     0.05730
C301        C  0.37437774  0.66869142  0.66708834     0.02770
C302        C  0.36236029  0.68152110  0.63769538    -0.13380
C303        C  0.33233285  0.67043906  0.62539719     0.00270
C304        C  0.31712409  0.64341156  0.63976367    -0.11900
C305        C  0.33025191  0.62969436  0.66810811     0.02760
C306        C  0.35987720  0.64108391  0.68074093    -0.11330
H307        H  0.37409271  0.70265599  0.62688876     0.08360
H308        H  0.29337233  0.63521890  0.63101639     0.05890
H309        H  0.36915324  0.63138604  0.70373056     0.05730
C310        C  0.32764439  0.62857808  0.33443700     0.02770
C311        C  0.31873458  0.63838818  0.36604779    -0.13380
C312        C  0.33522881  0.66445338  0.38098564     0.00270
C313        C  0.36369883  0.67699294  0.36682294    -0.11900
C314        C  0.37286947  0.66701608  0.33527707     0.02760
C315        C  0.35466468  0.64289709  0.31921669    -0.11330
H316        H  0.29664529  0.62879746  0.37718916     0.08360
H317        H  0.37541783  0.69817817  0.37784562     0.05890
H318        H  0.35921979  0.63771450  0.29351321     0.05730
C319        C  0.66607893  0.63143477  0.32455596     0.02770
C320        C  0.67900384  0.63382945  0.35617597    -0.13380
C321        C  0.67104477  0.66076424  0.37589846     0.00270
C322        C  0.64461832  0.68098645  0.36611511    -0.11900
C323        C  0.62999519  0.67698835  0.33526386     0.02760
C324        C  0.64176009  0.65270130  0.31419582    -0.11330
H325        H  0.69714999  0.61621458  0.36388187     0.08360
H326        H  0.63638374  0.70070199  0.38170629     0.05890
H327        H  0.63263589  0.65085784  0.28921784     0.05730
C328        C  0.67615236  0.37519822  0.32939150     0.02770
C329        C  0.69043567  0.35595805  0.35347216    -0.13380
C330        C  0.67713507  0.32565526  0.36022141     0.00270
C331        C  0.64920322  0.31492788  0.34407337    -0.11900
C332        C  0.63306359  0.33525279  0.32140963     0.02760
C333        C  0.64612479  0.36636255  0.31517253    -0.11330
H334        H  0.71385083  0.36283071  0.36418250     0.08360
H335        H  0.64099239  0.29007717  0.34842272     0.05890
H336        H  0.63496539  0.38258364  0.29753628     0.05730
Fe337      Fe  0.75021626  0.00194536  0.69563121     1.65780
Fe338      Fe  0.69118023  0.99832209  0.75377469     1.73250
Fe339      Fe  0.66969104  0.00076404  0.67300055     1.54420
O340        O  0.69511887  0.03589709  0.64393983    -0.82030
O341        O  0.66498545  0.95622566  0.74675175    -0.80340
O342        O  0.74483746  0.04179869  0.66629994    -0.84540
O343        O  0.74605970  0.97135838  0.65596279    -0.79390
O344        O  0.64320816  0.03927052  0.69660607    -0.81170
O345        O  0.73100605  0.97122269  0.76769316    -0.83910
C346        C  0.72367173  0.95663665  0.64024980     0.96850
C347        C  0.72369969  0.04906445  0.64480017     1.04290
O348        O  0.70357891  0.00038547  0.70718696    -1.12900
O349        O  0.71636688  0.04019942  0.76445862    -0.75330
O350        O  0.76114413  0.03268378  0.73391182    -0.78810
O351        O  0.69319735  0.96245639  0.64595953    -0.79500
C352        C  0.74570729  0.04686482  0.75685809     0.95760
O353        O  0.76106819  0.96210509  0.72345781    -0.77460
O354        O  0.64970659  0.02586047  0.74887057    -0.82650
C355        C  0.64279061  0.95014544  0.72578971     0.98380
C356        C  0.63561389  0.04253770  0.72701549     1.04300
O357        O  0.64043620  0.96563886  0.69844900    -0.78300
C358        C  0.75513298  0.95797706  0.75359113     1.02600
C359        C  0.82882606  0.17256245  0.87276735     0.02770
C360        C  0.81448386  0.14369119  0.86150964    -0.13380
C361        C  0.82942346  0.12564315  0.83649221     0.00270
C362        C  0.85998196  0.13548991  0.82439483    -0.11900
C363        C  0.87332496  0.16542525  0.83424119     0.02760
C364        C  0.85795236  0.18364596  0.85885684    -0.11330
H365        H  0.79003047  0.13731786  0.86975549     0.08360
H366        H  0.87081266  0.12250316  0.80383464     0.05890
H367        H  0.86646525  0.20815686  0.86452874     0.05730
Fe368      Fe  0.99644638  0.25107305  0.69396851     1.65780
Fe369      Fe  0.99337318  0.30940576  0.75314064     1.73250
Fe370      Fe  0.99763821  0.33196802  0.67319371     1.54410
O371        O  0.03273923  0.30651284  0.64418646    -0.82030
O372        O  0.95183698  0.33641805  0.74601192    -0.80340
O373        O  0.03670658  0.25614789  0.66446077    -0.84540
O374        O  0.96554851  0.25672430  0.65494685    -0.79390
O375        O  0.03669924  0.35646539  0.69761101    -0.81170
O376        O  0.96521936  0.27009843  0.76599510    -0.83910
C377        C  0.95154293  0.28006504  0.64024399     0.96850
C378        C  0.04544806  0.27781021  0.64405602     1.04290
O379        O  0.99584175  0.29751491  0.70648980    -1.12900
O380        O  0.03454991  0.28308130  0.76379435    -0.75330
O381        O  0.02670063  0.23884209  0.73228937    -0.78810
O382        O  0.95888708  0.31016203  0.64562243    -0.79500
C383        C  0.04020290  0.25359152  0.75611997     0.95760
O384        O  0.95608517  0.24029744  0.72144309    -0.77460
O385        O  0.02187308  0.35044586  0.74940597    -0.82650
C386        C  0.94692503  0.35950110  0.72585110     0.98380
C387        C  0.04008516  0.36343372  0.72813629     1.04300
O388        O  0.96300660  0.36174884  0.69883309    -0.78300
C389        C  0.95148652  0.24646216  0.75143827     1.02600
Fe390      Fe  0.24690075  0.00103344  0.69102351     1.65780
Fe391      Fe  0.30322355  0.99794187  0.75130770     1.73250
Fe392      Fe  0.32838662  0.00058388  0.67194252     1.54410
O393        O  0.30295847  0.96665975  0.64100959    -0.82030
O394        O  0.33128573  0.03894206  0.74893430    -0.80340
O395        O  0.25246432  0.96054671  0.66207753    -0.84540
O396        O  0.25349837  0.03128369  0.65174747    -0.79390
O397        O  0.35410861  0.96093272  0.69407566    -0.81170
O398        O  0.26384036  0.02644108  0.76438901    -0.83910
C399        C  0.27697193  0.04665773  0.63885224     0.96850
C400        C  0.27458620  0.95286017  0.64161753     1.04290
O401        O  0.29314982  0.99987520  0.70442564    -1.12900
O402        O  0.27567803  0.95676009  0.75674447    -0.75330
O403        O  0.23164678  0.97200428  0.72908309    -0.78810
O404        O  0.30697654  0.04038594  0.64590762    -0.79500
C405        C  0.24500907  0.95579474  0.75184088     0.95760
O406        O  0.23804216  0.04166358  0.71889416    -0.77460
O407        O  0.34422075  0.96913510  0.74706018    -0.82650
C408        C  0.35408366  0.04706412  0.72959655     0.98380
C409        C  0.36009985  0.95521303  0.72440892     1.04300
O410        O  0.35669793  0.03432708  0.70071483    -0.78300
C411        C  0.24236548  0.04324697  0.74962105     1.02600
C412        C  0.11822390  0.16778044  0.83252659     0.02770
C413        C  0.13139746  0.14078820  0.81616782    -0.13380
C414        C  0.16174440  0.12840779  0.82590361     0.00270
C415        C  0.17807889  0.14189620  0.85283195    -0.11900
C416        C  0.16448044  0.16854060  0.86936466     0.02760
C417        C  0.13352934  0.18016231  0.86052398    -0.11330
H418        H  0.12008244  0.13209053  0.79367164     0.08360
H419        H  0.20278748  0.13389382  0.85870946     0.05890
H420        H  0.12377363  0.20189630  0.87232954     0.05730
Fe421      Fe  0.99928825  0.75068989  0.69248141     1.65780
Fe422      Fe  0.00562040  0.69230754  0.75034948     1.73250
Fe423      Fe  0.99811157  0.67084138  0.67051560     1.54420
O424        O  0.96378945  0.69807003  0.64188918    -0.82030
O425        O  0.04719324  0.66664409  0.74052903    -0.80340
O426        O  0.95563874  0.74539110  0.66805346    -0.84540
O427        O  0.02520222  0.74541892  0.64976955    -0.79390
O428        O  0.95886259  0.64719104  0.69582860    -0.81170
O429        O  0.03383611  0.73211316  0.76161224    -0.83910
C430        C  0.04173413  0.72286708  0.63632950     0.96850
C431        C  0.94906560  0.72570671  0.64491081     1.04290
O432        O  0.00078790  0.70449937  0.70424742    -1.12900
O433        O  0.96480987  0.71788799  0.76348056    -0.75330
O434        O  0.97375601  0.76294921  0.73397144    -0.78810
O435        O  0.03711098  0.69262283  0.64350942    -0.79500
C436        C  0.95993230  0.74780515  0.75723833     0.95760
O437        O  0.04279356  0.75995866  0.71573616    -0.77460
O438        O  0.97723004  0.65079192  0.74703279    -0.82650
C439        C  0.05082186  0.64321302  0.72053220     0.98380
C440        C  0.95733910  0.63904232  0.72627772     1.04300
O441        O  0.03266329  0.64000143  0.69493448    -0.78300
C442        C  0.04795680  0.75468174  0.74584608     1.02600
C443        C  0.16677072  0.87786713  0.83842015     0.02770
C444        C  0.14290726  0.86255486  0.81866118    -0.13380
C445        C  0.12747758  0.83398472  0.82890279     0.00270
C446        C  0.13692324  0.81923114  0.85816041    -0.11900
C447        C  0.16054460  0.83394560  0.87792042     0.02760
C448        C  0.17326658  0.86463715  0.86951910    -0.11330
H449        H  0.13768837  0.87136258  0.79412600     0.08360
H450        H  0.12842913  0.79471745  0.86379038     0.05890
H451        H  0.19064716  0.87596275  0.88591706     0.05730
Fe452      Fe  0.24412164  0.69592877  0.00332435     1.65780
Fe453      Fe  0.30255035  0.75406100  0.99824333     1.73250
Fe454      Fe  0.32443609  0.67437084  0.00189388     1.54420
O455        O  0.29763774  0.64470925  0.03615178    -0.82030
O456        O  0.32854238  0.74673969  0.95627619    -0.80340
O457        O  0.25078704  0.67105101  0.04620462    -0.84540
O458        O  0.24914166  0.65331387  0.97643687    -0.79390
O459        O  0.34974959  0.69794745  0.04116213    -0.81170
O460        O  0.26240183  0.76572233  0.97018996    -0.83910
C461        C  0.27164941  0.64045734  0.95929212     0.96850
C462        C  0.27041758  0.64773452  0.05191638     1.04290
O463        O  0.29053414  0.70794369  0.00115722    -1.12900
O464        O  0.27730302  0.76497041  0.03987473    -0.75330
O465        O  0.23143873  0.73712824  0.02961957    -0.78810
O466        O  0.30180100  0.64880157  0.96248816    -0.79500
C467        C  0.24694075  0.76017375  0.04350842     0.95760
O468        O  0.23373964  0.72016245  0.96088976    -0.77460
O469        O  0.34425902  0.75001635  0.02634059    -0.82650
C470        C  0.35197424  0.72701309  0.95134171     0.98380
C471        C  0.35705887  0.72835782  0.04442372     1.04300
O472        O  0.35458860  0.70019099  0.96761430    -0.78300
C473        C  0.23965414  0.75011124  0.95593588     1.02600
Fe474      Fe  0.00498845  0.75435703  0.30496637     1.65780
Fe475      Fe  0.99904212  0.69693008  0.24662109     1.73250
Fe476      Fe  0.99975172  0.67453079  0.32596156     1.54410
O477        O  0.03340420  0.69946973  0.35731981    -0.82030
O478        O  0.95499893  0.67493943  0.25312912    -0.80340
O479        O  0.04634708  0.74589774  0.33157966    -0.84540
O480        O  0.97562250  0.75030662  0.34603194    -0.79390
O481        O  0.03951007  0.64951270  0.30351048    -0.81170
O482        O  0.97503372  0.73933167  0.23326028    -0.83910
C483        C  0.95689137  0.72851163  0.35776506     0.96850
C484        C  0.05061655  0.72558883  0.35454661     1.04290
O485        O  0.00119986  0.70852175  0.29283724    -1.12900
O486        O  0.04314227  0.71822622  0.23828857    -0.75330
O487        O  0.03437335  0.76497583  0.26497177    -0.78810
O488        O  0.96021675  0.69813757  0.35026589    -0.79500
C489        C  0.04891070  0.74816356  0.24308828     0.95760
O490        O  0.96383874  0.76617693  0.27930921    -0.77460
O491        O  0.02315165  0.65293542  0.25166394    -0.82650
C492        C  0.95058945  0.64983041  0.27059172     0.98380
C493        C  0.04234157  0.64148750  0.27319161     1.04300
O494        O  0.96619514  0.64563215  0.29774403    -0.78300
C495        C  0.96057932  0.76199772  0.24879343     1.02600
C496        C  0.16114448  0.88134138  0.16195720     0.02770
C497        C  0.17143834  0.87268062  0.13035126    -0.13380
C498        C  0.16282977  0.84210369  0.11773646     0.00270
C499        C  0.14026185  0.82261665  0.13428561    -0.11900
C500        C  0.12803872  0.83228621  0.16476805     0.02760
C501        C  0.13655569  0.86300988  0.17726890    -0.11330
H502        H  0.19035555  0.88681376  0.11829785     0.08360
H503        H  0.13620676  0.79782254  0.12560776     0.05890
H504        H  0.12780523  0.87020166  0.20131675     0.05730
Fe505      Fe  0.75240861  0.69829777  0.99940820     1.65780
Fe506      Fe  0.69363121  0.75638629  0.00142736     1.73250
Fe507      Fe  0.67204018  0.67617360  0.00397456     1.54410
O508        O  0.69687136  0.64488330  0.97029061    -0.82030
O509        O  0.66917385  0.75176533  0.04474287    -0.80340
O510        O  0.74585417  0.66739616  0.96100347    -0.84540
O511        O  0.74869683  0.66022507  0.03168969    -0.79390
O512        O  0.64478196  0.69729895  0.96458607    -0.81170
O513        O  0.73440324  0.77162027  0.02684149    -0.83910
C514        C  0.72683179  0.64594348  0.04824747     0.96850
C515        C  0.72498384  0.64511604  0.95610437     1.04290
O516        O  0.70590336  0.70998145  0.00152904    -1.12900
O517        O  0.71711891  0.76408693  0.95801885    -0.75330
O518        O  0.76263341  0.73480295  0.96638878    -0.78810
O519        O  0.69621522  0.65165954  0.04331285    -0.79500
C520        C  0.74630330  0.75627652  0.95097516     0.95760
O521        O  0.76407432  0.72765405  0.03815138    -0.77460
O522        O  0.65098455  0.75012448  0.97562704    -0.82650
C523        C  0.64633415  0.73215635  0.05205727     0.98380
C524        C  0.63662519  0.72733674  0.96040685     1.04300
O525        O  0.64368607  0.70397272  0.03815603    -0.78300
C526        C  0.75808546  0.75780903  0.04128878     1.02600
C527        C  0.83047194  0.87924406  0.16668157     0.02770
C528        C  0.85881132  0.86943994  0.18312951    -0.13380
C529        C  0.87585566  0.84192925  0.17243139     0.00270
C530        C  0.86637395  0.82578226  0.14369022    -0.11900
C531        C  0.83716389  0.83461439  0.12812225     0.02760
C532        C  0.81976395  0.86201067  0.13911229    -0.11330
H533        H  0.86549009  0.88085522  0.20625158     0.08360
H534        H  0.87991400  0.80448971  0.13546821     0.05890
H535        H  0.79627189  0.86813017  0.12815645     0.05730
Fe536      Fe  0.24501145  0.30751976  0.99359254     1.65780
Fe537      Fe  0.30311348  0.24815506  0.99998212     1.73250
Fe538      Fe  0.32537712  0.32849726  0.99952611     1.54420
O539        O  0.30048786  0.35957091  0.96559987    -0.82030
O540        O  0.33132763  0.25368910  0.04083952    -0.80340
O541        O  0.25359758  0.33461149  0.95264520    -0.84540
O542        O  0.24931638  0.34787400  0.02359777    -0.79390
O543        O  0.35173501  0.30582372  0.96037712    -0.81170
O544        O  0.26434654  0.23724308  0.02965686    -0.83910
C545        C  0.27089197  0.35989585  0.04243849     0.96850
C546        C  0.27386777  0.35762277  0.94888211     1.04290
O547        O  0.29130947  0.29471612  0.99774278    -1.12900
O548        O  0.27649677  0.23639977  0.95937822    -0.75330
O549        O  0.23300723  0.26906879  0.96373808    -0.78810
O550        O  0.30137765  0.35282797  0.03890368    -0.79500
C551        C  0.24760263  0.24448924  0.95183686     0.95760
O552        O  0.23182301  0.28110782  0.03373133    -0.77460
O553        O  0.34309609  0.25287158  0.97022428    -0.82650
C554        C  0.35307519  0.27450589  0.04797324     0.98380
C555        C  0.35727746  0.27537532  0.95446073     1.04300
O556        O  0.35460834  0.30251971  0.03401873    -0.78300
C557        C  0.23991035  0.25228217  0.04148923     1.02600
Fe558      Fe  0.24408499  0.00223747  0.30644417     1.65780
Fe559      Fe  0.30182725  0.99995847  0.24743665     1.73250
Fe560      Fe  0.32476878  0.00127401  0.32734863     1.54410
O561        O  0.29842411  0.03493455  0.35768036    -0.82030
O562        O  0.32889598  0.95836125  0.25287077    -0.80340
O563        O  0.25047398  0.04411396  0.33297260    -0.84540
O564        O  0.24993391  0.97418983  0.34771402    -0.79390
O565        O  0.34968696  0.04083483  0.30480466    -0.81170
O566        O  0.26216937  0.97143454  0.23539989    -0.83910
C567        C  0.27260717  0.95717502  0.36035271     0.96850
C568        C  0.27084212  0.05011134  0.35574614     1.04290
O569        O  0.29044235  0.00109992  0.29392615    -1.12900
O570        O  0.27552248  0.04128192  0.23835262    -0.75330
O571        O  0.23034107  0.02961748  0.26651054    -0.78810
O572        O  0.30274152  0.96157214  0.35255176    -0.79500
C573        C  0.24521138  0.04456233  0.24380612     0.95760
O574        O  0.23385210  0.96059445  0.28079852    -0.77460
O575        O  0.34279536  0.02900148  0.25191553    -0.82650
C576        C  0.35201981  0.95271653  0.27281101     0.98380
C577        C  0.35645755  0.04550778  0.27444670     1.04300
O578        O  0.35475115  0.96785367  0.30036765    -0.78300
C579        C  0.23951032  0.95661225  0.25055474     1.02600
Fe580      Fe  0.99918579  0.25063353  0.30592663     1.65780
Fe581      Fe  0.99671989  0.31060841  0.24953708     1.73250
Fe582      Fe  0.99750765  0.33033296  0.33074169     1.54410
O583        O  0.96356970  0.30223491  0.35957119    -0.82030
O584        O  0.03769333  0.33890031  0.25471079    -0.80340
O585        O  0.95830707  0.25401028  0.33445519    -0.84540
O586        O  0.02840260  0.25490203  0.34660816    -0.79390
O587        O  0.95769682  0.35686365  0.30949117    -0.81170
O588        O  0.02611175  0.27276797  0.23454843    -0.83910
C589        C  0.04276862  0.27747995  0.36213588     0.96850
C590        C  0.95043927  0.27358176  0.35723346     1.04290
O591        O  0.99783934  0.29748402  0.29572386    -1.12900
O592        O  0.95552640  0.28336022  0.24103049    -0.75330
O593        O  0.97003715  0.23760739  0.26682330    -0.78810
O594        O  0.03723737  0.30777569  0.35617659    -0.79500
C595        C  0.95270564  0.25301544  0.24623223     0.95760
O596        O  0.04036778  0.24385967  0.27819898    -0.77460
O597        O  0.96684139  0.35024715  0.25617160    -0.82650
C598        C  0.04528339  0.35991396  0.27633163     0.98380
C599        C  0.95161568  0.36393347  0.27942620     1.04300
O600        O  0.03150065  0.36090852  0.30478343    -0.78300
C601        C  0.04293107  0.25050605  0.24795911     1.02600
C602        C  0.12665673  0.16829606  0.17030491     0.02770
C603        C  0.14143588  0.18492291  0.14429913    -0.13380
C604        C  0.16709174  0.17058232  0.12698558     0.00270
C605        C  0.17774579  0.13921659  0.13506789    -0.11900
C606        C  0.16412138  0.12325185  0.16207443     0.02760
C607        C  0.13697106  0.13665150  0.17811600    -0.11330
H608        H  0.13480314  0.21013951  0.13920992     0.08360
H609        H  0.19928486  0.12908788  0.12320284     0.05890
H610        H  0.12646759  0.12406373  0.19893574     0.05730
Fe611      Fe  0.69121006  0.25230567  0.99969855     1.65780
Fe612      Fe  0.74927945  0.31136755  0.99921006     1.73250
Fe613      Fe  0.66851111  0.33252363  0.00162033     1.54410
O614        O  0.63837219  0.30663607  0.96750011    -0.82030
O615        O  0.74496308  0.33813950  0.04143061    -0.80340
O616        O  0.66138741  0.25737401  0.95990988    -0.84540
O617        O  0.65153979  0.25648263  0.03052743    -0.79390
O618        O  0.68946187  0.35901166  0.96194887    -0.81170
O619        O  0.76440779  0.27175659  0.02645602    -0.83910
C620        C  0.63729485  0.27905726  0.04628060     0.96850
C621        C  0.63973410  0.27856830  0.95328768     1.04290
O622        O  0.70271761  0.29892966  0.00014698    -1.12900
O623        O  0.75709301  0.28570181  0.95709958    -0.75330
O624        O  0.72919454  0.24026395  0.96872801    -0.78810
O625        O  0.64372369  0.30936746  0.04132815    -0.79500
C626        C  0.75082180  0.25574865  0.95278013     0.95760
O627        O  0.71993071  0.24327613  0.03969752    -0.77460
O628        O  0.74288712  0.35236086  0.97080294    -0.82650
C629        C  0.72400747  0.35964464  0.04938980     0.98380
C630        C  0.71945393  0.36606457  0.95579023     1.04300
O631        O  0.69562134  0.36169919  0.03572113    -0.78300
C632        C  0.75025880  0.24920600  0.04226523     1.02600
Fe633      Fe  0.68965039  0.00090144  0.25030237     1.65780
Fe634      Fe  0.74914593  0.00181417  0.30823167     1.73250
Fe635      Fe  0.66883961  0.00190337  0.33116841     1.54410
O636        O  0.63896007  0.03623418  0.30478304    -0.82030
O637        O  0.74475220  0.96102541  0.33661272    -0.80340
O638        O  0.66117985  0.04156270  0.25483309    -0.84540
O639        O  0.64947011  0.97116885  0.25620164    -0.79390
O640        O  0.69144340  0.04123275  0.35670826    -0.81170
O641        O  0.76209192  0.97298734  0.26892236    -0.83910
C642        C  0.63596738  0.95613355  0.27964500     0.96850
C643        C  0.63988864  0.04928398  0.27603891     1.04290
O644        O  0.70228728  0.00164004  0.29682637    -1.12900
O645        O  0.75738069  0.04263941  0.28117459    -0.75330
O646        O  0.72824412  0.03041373  0.23651634    -0.78810
O647        O  0.64288912  0.96226902  0.30967535    -0.79500
C648        C  0.75075091  0.04620003  0.25111650     0.95760
O649        O  0.71666585  0.95987907  0.24172005    -0.77460
O650        O  0.74454716  0.03150555  0.34856130    -0.82650
C651        C  0.72386022  0.95374830  0.35837205     0.98380
C652        C  0.72175677  0.04678521  0.36293215     1.04300
O653        O  0.69560348  0.96763406  0.36035183    -0.78300
C654        C  0.74707660  0.95710473  0.24680405     1.02600
C655        C  0.82588507  0.13133712  0.16918975     0.02770
C656        C  0.85120634  0.14825379  0.18501991    -0.13380
C657        C  0.86660533  0.17440485  0.16949536     0.00270
C658        C  0.85633076  0.18441022  0.13846251    -0.11900
C659        C  0.83074723  0.16789747  0.12280349     0.02760
C660        C  0.81747938  0.13970890  0.13697480    -0.11330
H661        H  0.85746392  0.14264048  0.21028423     0.08360
H662        H  0.86554032  0.20716586  0.12836816     0.05890
H663        H  0.79789610  0.12687911  0.12444407     0.05730
C664        C  0.87978069  0.83135555  0.83522385     0.02770
C665        C  0.86947247  0.86108432  0.82136042    -0.13380
C666        C  0.83780735  0.87257993  0.82750957     0.00270
C667        C  0.81827994  0.85674417  0.85062531    -0.11900
C668        C  0.82991864  0.82940789  0.86732765     0.02760
C669        C  0.86061487  0.81642659  0.85936300    -0.11330
H670        H  0.88430883  0.87265587  0.80266418     0.08360
H671        H  0.79297948  0.86430714  0.85384869     0.05890
H672        H  0.86794146  0.79296533  0.86940612     0.05730
C673        C  0.82196900  0.08517370  0.20774560    -0.20660
C674        C  0.80565792  0.10852142  0.18845669    -0.07230
C675        C  0.77121029  0.11263950  0.19182749     0.13640
C676        C  0.75394263  0.09150024  0.21232143    -0.20720
C677        C  0.77040465  0.06866524  0.23170372    -0.07230
C678        C  0.80489880  0.06613338  0.23042480     0.13630
C679        C  0.82383948  0.04381448  0.25302224    -0.24070
H680        H  0.84840833  0.08281275  0.20597964     0.14920
H681        H  0.72747461  0.09356202  0.21423626     0.14940
C682        C  0.75259034  0.14068360  0.17658050    -0.24010
H683        H  0.85053815  0.04406885  0.24759867     0.05160
H684        H  0.81502386  0.01834075  0.25058900     0.08380
H685        H  0.82055822  0.05194732  0.27883141     0.08380
H686        H  0.75166445  0.13835957  0.14953280     0.08370
H687        H  0.76423420  0.16408435  0.18399716     0.08370
H688        H  0.72672055  0.14156649  0.18508743     0.05140
C689        C  0.79958857  0.21533122  0.04976348    -0.20660
C690        C  0.77040941  0.22816110  0.06299513    -0.07230
C691        C  0.76113121  0.22050940  0.09532158     0.13640
C692        C  0.78137670  0.20014643  0.11370936    -0.20720
C693        C  0.81010472  0.18673924  0.10039571    -0.07230
C694        C  0.81964955  0.19448940  0.06822836     0.13630
C695        C  0.85064521  0.18075925  0.05357225    -0.24070
H696        H  0.80649711  0.22139753  0.02485444     0.14920
H697        H  0.77528535  0.19541516  0.13905386     0.14940
C698        C  0.73083049  0.23475965  0.11102330    -0.24010
H699        H  0.85409686  0.18898806  0.02783652     0.05160
H700        H  0.84956697  0.15360544  0.05368159     0.08380
H701        H  0.87221284  0.18891147  0.06810490     0.08380
H702        H  0.70858238  0.22589662  0.09805465     0.08370
H703        H  0.73185820  0.26189970  0.10999846     0.08370
H704        H  0.72856725  0.22748697  0.13719250     0.05140
C705        C  0.07877747  0.20385577  0.17605914    -0.20660
C706        C  0.10404592  0.18658436  0.19154634    -0.07230
C707        C  0.11056605  0.19192107  0.22529429     0.13640
C708        C  0.09016430  0.21305141  0.24294292    -0.20720
C709        C  0.06492820  0.23055349  0.22738606    -0.07230
C710        C  0.06011967  0.22690900  0.19301464     0.13630
C711        C  0.03640891  0.24751961  0.17335736    -0.24070
H712        H  0.07482285  0.20043348  0.14992961     0.14920
H713        H  0.09449320  0.21651236  0.26899066     0.14940
C714        C  0.13992259  0.17728331  0.24258376    -0.24010
H715        H  0.03628816  0.24076239  0.14692085     0.05160
H716        H  0.04362130  0.27367620  0.17498391     0.08380
H717        H  0.01111427  0.24447624  0.18251380     0.08380
H718        H  0.16267585  0.18276551  0.22868265     0.08370
H719        H  0.13700277  0.15048705  0.24529059     0.08370
H720        H  0.14299255  0.18745509  0.26771799     0.05140
C721        C  0.94310885  0.21422339  0.20171554    -0.20660
C722        C  0.92996173  0.23416743  0.22639394    -0.07230
C723        C  0.89607207  0.23431498  0.23270011     0.13640
C724        C  0.87572279  0.21449074  0.21350598    -0.20720
C725        C  0.88889197  0.19503772  0.18833250    -0.07230
C726        C  0.92278080  0.19498921  0.18204567     0.13630
C727        C  0.93743557  0.17425628  0.15515368    -0.24070
H728        H  0.96934070  0.21337862  0.19811376     0.14920
H729        H  0.84953120  0.21401918  0.21810959     0.14940
C730        C  0.88172970  0.25453280  0.26012881    -0.24010
H731        H  0.96453594  0.17692448  0.15400026     0.05160
H732        H  0.92716126  0.18172057  0.13103620     0.08380
H733        H  0.93166685  0.14808161  0.15956166     0.08380
H734        H  0.88685383  0.28085155  0.25579292     0.08370
H735        H  0.89285414  0.24710400  0.28389322     0.08370
H736        H  0.85473412  0.25130986  0.26194735     0.05140
C737        C  0.19780176  0.05046132  0.20744154    -0.20660
C738        C  0.22573789  0.06466564  0.22183376    -0.07230
C739        C  0.23403787  0.09734878  0.21530342     0.13640
C740        C  0.21330108  0.11553676  0.19522812    -0.20720
C741        C  0.18532941  0.10144424  0.18083573    -0.07230
C742        C  0.17728625  0.06863872  0.18692258     0.13630
C743        C  0.14739378  0.05298667  0.17184088    -0.24070
H744        H  0.19222509  0.02499752  0.21204360     0.14920
H745        H  0.21836513  0.14123424  0.19150247     0.14940
C746        C  0.26385692  0.11338087  0.23029235    -0.24010
H747        H  0.14520239  0.02681711  0.17887475     0.05160
H748        H  0.14894665  0.05439189  0.14467111     0.08380
H749        H  0.12490956  0.06584343  0.18020659     0.08380
H750        H  0.28647213  0.10097664  0.22157718     0.08370
H751        H  0.26258404  0.11188658  0.25747704     0.08370
H752        H  0.26567877  0.13960902  0.22338482     0.05140
C753        C  0.23491998  0.22263458  0.09280445    -0.20660
C754        C  0.21977990  0.23447554  0.06449285    -0.07230
C755        C  0.18736970  0.22545200  0.05646800     0.13640
C756        C  0.17089273  0.20370110  0.07700899    -0.20720
C757        C  0.18632392  0.19115226  0.10502240    -0.07230
C758        C  0.21839327  0.20131760  0.11358421     0.13630
C759        C  0.23510913  0.19053907  0.14477576    -0.24070
H760        H  0.25993008  0.22985595  0.09838323     0.14920
H761        H  0.14595802  0.19638723  0.07128385     0.14940
C762        C  0.17060153  0.23791482  0.02591108    -0.24010
H763        H  0.25892299  0.20322886  0.14852758     0.05160
H764        H  0.24038123  0.16396601  0.14362265     0.08380
H765        H  0.21927665  0.19618606  0.16621500     0.08380
H766        H  0.18490278  0.23084921  0.00384152     0.08370
H767        H  0.16856130  0.26498733  0.02702319     0.08370
H768        H  0.14547330  0.22773705  0.02322658     0.05140
C769        C  0.77830909  0.88728808  0.19503487    -0.20660
C770        C  0.80772259  0.90094000  0.18363246    -0.07230
C771        C  0.81620059  0.93332055  0.19161564     0.13640
C772        C  0.79533739  0.95106909  0.21200398    -0.20720
C773        C  0.76661250  0.93704476  0.22461602    -0.07230
C774        C  0.75744967  0.90507950  0.21546682     0.13630
C775        C  0.72679398  0.88912589  0.22830119    -0.24070
H776        H  0.77233640  0.86212856  0.18893384     0.14920
H777        H  0.80140196  0.97610856  0.21803372     0.14940
C778        C  0.84683384  0.94923575  0.17843656    -0.24010
H779        H  0.72437870  0.86344774  0.21961308     0.05160
H780        H  0.70485833  0.90274248  0.21966114     0.08380
H781        H  0.72752784  0.88883643  0.25554109     0.08380
H782        H  0.84651556  0.94844743  0.15119327     0.08370
H783        H  0.86899976  0.93637201  0.18755666     0.08370
H784        H  0.84872811  0.97525477  0.18619978     0.05140
C785        C  0.79239741  0.76281284  0.09064105    -0.20660
C786        C  0.77963000  0.77747790  0.06234338    -0.07230
C787        C  0.78844453  0.81000874  0.05437126     0.13640
C788        C  0.80958051  0.82704632  0.07521539    -0.20720
C789        C  0.82129830  0.81286043  0.10418216    -0.07230
C790        C  0.81264787  0.78022774  0.11211093     0.13630
C791        C  0.82257382  0.76412272  0.14394774    -0.24070
H792        H  0.78550751  0.73788462  0.09658480     0.14920
H793        H  0.81609701  0.85215447  0.06957882     0.14940
C794        C  0.77653235  0.82679047  0.02369111    -0.24010
H795        H  0.81089765  0.73975040  0.14692792     0.05160
H796        H  0.81480382  0.77954149  0.16497816     0.08380
H797        H  0.84944135  0.76010360  0.14471831     0.08380
H798        H  0.74948494  0.82991232  0.02439234     0.08370
H799        H  0.78380500  0.81193218  0.00213396     0.08370
H800        H  0.78741747  0.85153557  0.02078895     0.05140
C801        C  0.76865948  0.80822630  0.93305576    -0.20660
C802        C  0.76348651  0.77509240  0.92625536    -0.07230
C803        C  0.77910436  0.75993053  0.89945359     0.13640
C804        C  0.80046439  0.77846508  0.88025835    -0.20720
C805        C  0.80731641  0.81118603  0.88834369    -0.07230
C806        C  0.79148248  0.82625773  0.91522824     0.13630
C807        C  0.80007515  0.86038681  0.92663076    -0.24070
H808        H  0.75614235  0.81950321  0.95361071     0.14920
H809        H  0.81215197  0.76733918  0.85909856     0.14940
C810        C  0.77290644  0.72453662  0.89094210    -0.24010
H811        H  0.78739594  0.86676855  0.94990861     0.05160
H812        H  0.79271830  0.87883560  0.90814671     0.08380
H813        H  0.82690906  0.86208971  0.93109731     0.08380
H814        H  0.74626654  0.72066042  0.88669129     0.08370
H815        H  0.78125551  0.70848186  0.91124932     0.08370
H816        H  0.78624311  0.71706954  0.86836873     0.05140
C817        C  0.23389232  0.91279528  0.21053577    -0.20660
C818        C  0.21851004  0.93535923  0.23105952    -0.07230
C819        C  0.18440584  0.94070655  0.22871368     0.13640
C820        C  0.16675569  0.92472871  0.20394563    -0.20720
C821        C  0.18209252  0.90203163  0.18305891    -0.07230
C822        C  0.21605311  0.89500759  0.18743684     0.13630
C823        C  0.23361040  0.86741032  0.17007287    -0.24070
H824        H  0.26011061  0.90880708  0.21300569     0.14920
H825        H  0.14060775  0.92902733  0.20159674     0.14940
C826        C  0.16659831  0.96306334  0.25218258    -0.24010
H827        H  0.25888757  0.86378401  0.17966931     0.05160
H828        H  0.23614230  0.87246906  0.14351092     0.08380
H829        H  0.22012504  0.84426421  0.17419345     0.08380
H830        H  0.17720005  0.98798282  0.25143323     0.08370
H831        H  0.16883274  0.95335810  0.27753265     0.08370
H832        H  0.14007056  0.96494094  0.24617975     0.05140
C833        C  0.09627157  0.78402353  0.23749146    -0.20660
C834        C  0.07234558  0.76486782  0.22210499    -0.07230
C835        C  0.06962074  0.76480045  0.18746005     0.13640
C836        C  0.08768897  0.78761856  0.16974842    -0.20720
C837        C  0.11063822  0.80808865  0.18519702    -0.07230
C838        C  0.11708549  0.80394016  0.21920751     0.13630
C839        C  0.14645335  0.81814193  0.23683229    -0.24070
H840        H  0.09940244  0.78259962  0.26392010     0.14920
H841        H  0.08343187  0.78959884  0.14354413     0.14940
C842        C  0.04802020  0.74189418  0.16788638    -0.24010
H843        H  0.15881524  0.79860638  0.25121774     0.05160
H844        H  0.13839092  0.83769654  0.25399912     0.08380
H845        H  0.16534116  0.82777778  0.21992068     0.08380
H846        H  0.06380415  0.72516558  0.15329785     0.08370
H847        H  0.03131525  0.72681859  0.18282828     0.08370
H848        H  0.03273548  0.75610415  0.15039438     0.05140
C849        C  0.93083651  0.82145867  0.18491046    -0.20660
C850        C  0.89832819  0.82537775  0.19475823    -0.07230
C851        C  0.88657884  0.80976550  0.22343345     0.13640
C852        C  0.90787158  0.78977939  0.24123932    -0.20720
C853        C  0.93998494  0.78467741  0.23050632    -0.07230
C854        C  0.95194519  0.80121906  0.20256295     0.13630
C855        C  0.98674221  0.79735335  0.19110960    -0.24070
H856        H  0.93931896  0.83343854  0.16275705     0.14920
H857        H  0.89912695  0.77709809  0.26287954     0.14940
C858        C  0.85136522  0.81273472  0.23450262    -0.24010
H859        H  0.99226746  0.81309303  0.16961218     0.05160
H860        H  0.99046508  0.77164004  0.18361814     0.08380
H861        H  0.00400216  0.80387655  0.21119326     0.08380
H862        H  0.83459669  0.80491634  0.21451067     0.08370
H863        H  0.84581189  0.83839500  0.24145085     0.08370
H864        H  0.84629038  0.79721244  0.25627186     0.05140
C865        C  0.20742547  0.80278978  0.11422977    -0.20660
C866        C  0.18664536  0.82462757  0.09760700    -0.07230
C867        C  0.18703379  0.82651344  0.06321036     0.13640
C868        C  0.20810585  0.80566162  0.04594240    -0.20720
C869        C  0.22820815  0.78332049  0.06275728    -0.07230
C870        C  0.22817275  0.78192089  0.09713160     0.13630
C871        C  0.24848926  0.75732337  0.11563619    -0.24070
H872        H  0.20614053  0.80094572  0.14072610     0.14920
H873        H  0.20834170  0.80613004  0.01931728     0.14940
C874        C  0.16457307  0.84944858  0.04502362    -0.24010
H875        H  0.24447236  0.75890507  0.14256446     0.05160
H876        H  0.27482561  0.76152237  0.11086380     0.08380
H877        H  0.24183261  0.73237511  0.10742707     0.08380
H878        H  0.16978214  0.87506652  0.05252172     0.08370
H879        H  0.13863684  0.84355119  0.05084082     0.08370
H880        H  0.16788064  0.84748281  0.01801700     0.05140
C881        C  0.21026862  0.80208667  0.88676014    -0.20660
C882        C  0.17989366  0.81252425  0.89907585    -0.07230
C883        C  0.16780024  0.79978803  0.92873660     0.13640
C884        C  0.18729942  0.77759376  0.94618456    -0.20720
C885        C  0.21837992  0.76861883  0.93443600    -0.07230
C886        C  0.23022505  0.78105922  0.90465584     0.13630
C887        C  0.26380343  0.77223971  0.89187726    -0.24070
H888        H  0.21815433  0.81000495  0.86275473     0.14920
H889        H  0.17888212  0.76814822  0.96956417     0.14940
C890        C  0.13486888  0.80994219  0.94201273    -0.24010
H891        H  0.26882045  0.78384164  0.86775590     0.05160
H892        H  0.26576888  0.74529903  0.88887411     0.08380
H893        H  0.28284929  0.78075893  0.90941817     0.08380
H894        H  0.11520228  0.80293931  0.92447745     0.08370
H895        H  0.13438953  0.83686740  0.94571554     0.08370
H896        H  0.12958877  0.79804243  0.96592604     0.05140
C897        C  0.05525014  0.78854205  0.79439544    -0.20660
C898        C  0.06838397  0.77705039  0.76471734    -0.07230
C899        C  0.10010533  0.78635474  0.75484372     0.13640
C900        C  0.11874148  0.80587324  0.77605230    -0.20720
C901        C  0.10594996  0.81626346  0.80635314    -0.07230
C902        C  0.07362886  0.80824550  0.81535834     0.13630
C903        C  0.05830037  0.82077196  0.84667104    -0.24070
H904        H  0.03043865  0.78185802  0.80127436     0.14920
H905        H  0.14367847  0.81230618  0.76946906     0.14940
C906        C  0.11472589  0.77472216  0.72291716    -0.24010
H907        H  0.03215786  0.81338565  0.84873075     0.05160
H908        H  0.05937852  0.84792041  0.84719663     0.08380
H909        H  0.07139834  0.81086331  0.86836577     0.08380
H910        H  0.10008692  0.78418503  0.70197730     0.08370
H911        H  0.11492665  0.74754994  0.72218028     0.08370
H912        H  0.14034693  0.78342982  0.71984523     0.05140
C913        C  0.94628601  0.77097418  0.81118329    -0.20660
C914        C  0.93820184  0.76672015  0.77794143    -0.07230
C915        C  0.91193779  0.78393489  0.76387301     0.13640
C916        C  0.89411832  0.80507202  0.78356165    -0.20720
C917        C  0.90254532  0.81069443  0.81648677    -0.07230
C918        C  0.92887467  0.79323928  0.83073215     0.13630
C919        C  0.93961149  0.79802509  0.86582027    -0.24070
H920        H  0.96708551  0.75795874  0.82149750     0.14920
H921        H  0.87286725  0.81669259  0.77322841     0.14940
C922        C  0.90217601  0.77968883  0.72829635    -0.24010
H923        H  0.96588491  0.80517745  0.86642151     0.05160
H924        H  0.93656870  0.77474962  0.87951549     0.08380
H925        H  0.92553781  0.81746080  0.87858223     0.08380
H926        H  0.89721896  0.75347115  0.72310939     0.08370
H927        H  0.92202957  0.78851298  0.71196570     0.08370
H928        H  0.87970741  0.79383362  0.72212395     0.05140
C929        C  0.19904755  0.17405876  0.91850384    -0.20660
C930        C  0.18576621  0.18839305  0.89029022    -0.07230
C931        C  0.19545559  0.22025072  0.88067129     0.13640
C932        C  0.21662575  0.23784479  0.90098488    -0.20720
C933        C  0.22919358  0.22377444  0.92954720    -0.07230
C934        C  0.22096800  0.19141551  0.93830284     0.13630
C935        C  0.23448415  0.17555130  0.96888343    -0.24070
H936        H  0.19216539  0.14926478  0.92498317     0.14920
H937        H  0.22343669  0.26270635  0.89465089     0.14940
C938        C  0.18473463  0.23538808  0.84857446    -0.24010
H939        H  0.22480364  0.15036879  0.97220449     0.05160
H940        H  0.22766156  0.19013820  0.99084415     0.08380
H941        H  0.26162004  0.17392802  0.96725858     0.08380
H942        H  0.15799514  0.24027503  0.84866699     0.08370
H943        H  0.19090674  0.21874928  0.82789031     0.08370
H944        H  0.19718720  0.25913522  0.84409277     0.05140
C945        C  0.18763317  0.07525344  0.81712077    -0.20660
C946        C  0.17970054  0.10599546  0.80461799    -0.07230
C947        C  0.19238176  0.11636551  0.77409363     0.13640
C948        C  0.21255854  0.09510103  0.75641252    -0.20720
C949        C  0.22108784  0.06446946  0.76918014    -0.07230
C950        C  0.20844637  0.05429408  0.79993489     0.13630
C951        C  0.21615089  0.02136236  0.81474155    -0.24070
H952        H  0.17807044  0.06803913  0.84086489     0.14920
H953        H  0.22245070  0.10273235  0.73294300     0.14940
C954        C  0.18596280  0.15021356  0.76079425    -0.24010
H955        H  0.20225572  0.01704600  0.83776915     0.05160
H956        H  0.24262731  0.01964596  0.82084479     0.08380
H957        H  0.20941019  0.00180859  0.79721428     0.08380
H958        H  0.19397596  0.16890333  0.77894831     0.08370
H959        H  0.15946234  0.15335738  0.75549994     0.08370
H960        H  0.19949267  0.15464814  0.73757265     0.05140
C961        C  0.17198255  0.92450707  0.80056982    -0.20660
C962        C  0.18756080  0.90364105  0.82311446    -0.07230
C963        C  0.22245907  0.90296699  0.82395458     0.13640
C964        C  0.23995263  0.91991015  0.79999398    -0.20720
C965        C  0.22413824  0.93751079  0.77508722    -0.07230
C966        C  0.18938578  0.94019420  0.77564992     0.13630
C967        C  0.16986194  0.95870653  0.75011241    -0.24070
H968        H  0.14545519  0.92650915  0.80092437     0.14920
H969        H  0.26651446  0.91891980  0.80057141     0.14940
C970        C  0.24234230  0.88427550  0.84889121    -0.24010
H971        H  0.14301637  0.95705617  0.75446552     0.05160
H972        H  0.17459732  0.94821964  0.72538751     0.08380
H973        H  0.17634623  0.98507161  0.75055809     0.08380
H974        H  0.23588845  0.85813289  0.84793282     0.08370
H975        H  0.23859810  0.89476487  0.87372886     0.08370
H976        H  0.26912372  0.88577056  0.84410630     0.05140
C977        C  0.11263279  0.20819135  0.78898390    -0.20660
C978        C  0.09747071  0.18998766  0.81392623    -0.07230
C979        C  0.06415285  0.19445884  0.82123469     0.13640
C980        C  0.04621705  0.21679694  0.80255161    -0.20720
C981        C  0.06121635  0.23433981  0.77713540    -0.07230
C982        C  0.09464672  0.23027922  0.77016394     0.13630
C983        C  0.11099855  0.24884257  0.74278161    -0.24070
H984        H  0.13859761  0.20494482  0.78423800     0.14920
H985        H  0.02029927  0.22003409  0.80719365     0.14940
C986        C  0.04765372  0.17531469  0.84807690    -0.24010
H987        H  0.13747326  0.24265904  0.74081261     0.05160
H988        H  0.10878433  0.27555852  0.74734792     0.08380
H989        H  0.09904029  0.24277398  0.71902138     0.08380
H990        H  0.05958996  0.18073053  0.87199693     0.08370
H991        H  0.04972371  0.14871009  0.84283687     0.08370
H992        H  0.02121526  0.18158129  0.85011173     0.05140
C993        C  0.80137452  0.22581368  0.94298668    -0.20660
C994        C  0.77137879  0.23713671  0.93066425    -0.07230
C995        C  0.76040114  0.22782350  0.89932659     0.13640
C996        C  0.77993755  0.20677087  0.88072700    -0.20720
C997        C  0.80967891  0.19474115  0.89333308    -0.07230
C998        C  0.82069649  0.20432252  0.92468982     0.13630
C999        C  0.85196800  0.19097549  0.93929867    -0.24070
H1000       H  0.80918412  0.23312394  0.96735729     0.14920
H1001       H  0.77199377  0.19949169  0.85636038     0.14940
C1002       C  0.72831377  0.24013975  0.88570969    -0.24010
H1003       H  0.85601470  0.20015682  0.96466919     0.05160
H1004       H  0.87332453  0.19846755  0.92425935     0.08380
H1005       H  0.85076066  0.16383817  0.94022067     0.08380
H1006       H  0.72882937  0.26728437  0.88451792     0.08370
H1007       H  0.70779212  0.23230994  0.90176952     0.08370
H1008       H  0.72360080  0.23057215  0.86059433     0.05140
C1009       C  0.94241028  0.21775388  0.80337902    -0.20660
C1010       C  0.93156799  0.22419548  0.77123594    -0.07230
C1011       C  0.90307776  0.20876328  0.75906284     0.13640
C1012       C  0.88549447  0.18821856  0.77997405    -0.20720
C1013       C  0.89605243  0.18240930  0.81231478    -0.07230
C1014       C  0.92523875  0.19663695  0.82397077     0.13630
C1015       C  0.93858501  0.18920237  0.85772382    -0.24070
H1016       H  0.96450904  0.22931880  0.81249042     0.14920
H1017       H  0.86264759  0.17758293  0.77145957     0.14940
C1018       C  0.89017147  0.21496759  0.72488426    -0.24010
H1019       H  0.96256640  0.20137434  0.86204564     0.05160
H1020       H  0.94222468  0.16239813  0.86032126     0.08380
H1021       H  0.92150744  0.19786335  0.87701052     0.08380
H1022       H  0.90778256  0.20560591  0.70635655     0.08370
H1023       H  0.88627211  0.24161532  0.72121402     0.08370
H1024       H  0.86639371  0.20240483  0.72051869     0.05140
C1025       C  0.76587379  0.06342191  0.81087337    -0.20660
C1026       C  0.76409401  0.06976010  0.77713099    -0.07230
C1027       C  0.78382786  0.09419274  0.76299044     0.13640
C1028       C  0.80551080  0.11136187  0.78308708    -0.20720
C1029       C  0.80885008  0.10375181  0.81659637    -0.07230
C1030       C  0.78902468  0.07916530  0.83062578     0.13630
C1031       C  0.79245280  0.06805928  0.86575091    -0.24070
H1032       H  0.75038134  0.04473897  0.82155703     0.14920
H1033       H  0.81963816  0.13121189  0.77259792     0.14940
C1034       C  0.78139011  0.10290063  0.72705692    -0.24010
H1035       H  0.79707217  0.04126302  0.86626602     0.05160
H1036       H  0.76941251  0.07331486  0.87928288     0.08380
H1037       H  0.81317884  0.07995860  0.87874475     0.08380
H1038       H  0.75564132  0.10931326  0.72083359     0.08370
H1039       H  0.78948721  0.08205539  0.71157740     0.08370
H1040       H  0.79713099  0.12418013  0.72082518     0.05140
C1041       C  0.80613107  0.92322816  0.82317040    -0.20660
C1042       C  0.82214104  0.89761399  0.80691936    -0.07230
C1043       C  0.81675356  0.89269106  0.77291375     0.13640
C1044       C  0.79505515  0.91318749  0.75632894    -0.20720
C1045       C  0.77762694  0.93759582  0.77292306    -0.07230
C1046       C  0.78345088  0.94296797  0.80685457     0.13630
C1047       C  0.76641175  0.96943580  0.82619555    -0.24070
H1048       H  0.81012360  0.92655037  0.84931158     0.14920
H1049       H  0.79069815  0.90925655  0.73034728     0.14940
C1050       C  0.83165051  0.86471094  0.75411922    -0.24010
H1051       H  0.77543038  0.97085034  0.85191757     0.05160
H1052       H  0.73962924  0.96463053  0.82724850     0.08380
H1053       H  0.77124034  0.99333068  0.81444962     0.08380
H1054       H  0.82440529  0.84132686  0.76581323     0.08370
H1055       H  0.85866730  0.86749852  0.75324019     0.08370
H1056       H  0.82296933  0.86383387  0.72826115     0.05140
C1057       C  0.26922127  0.11426074  0.42529531    -0.20660
C1058       C  0.23523101  0.12058704  0.42842173    -0.07230
C1059       C  0.21344325  0.10341173  0.40763095     0.13640
C1060       C  0.22608208  0.08099021  0.38448591    -0.20720
C1061       C  0.26010902  0.07465599  0.38125732    -0.07230
C1062       C  0.28187733  0.09163494  0.40233525     0.13630
C1063       C  0.31848253  0.08670533  0.40055428    -0.24070
H1064       H  0.28626025  0.12702671  0.44125320     0.14920
H1065       H  0.20889447  0.06803566  0.36885985     0.14940
C1066       C  0.17693021  0.10909480  0.40895768    -0.24010
H1067       H  0.33179968  0.10307995  0.41781708     0.05160
H1068       H  0.32730095  0.09209366  0.37535574     0.08380
H1069       H  0.32476458  0.06112661  0.40721395     0.08380
H1070       H  0.17149797  0.13541314  0.40484202     0.08370
H1071       H  0.16725156  0.10145404  0.43320664     0.08370
H1072       H  0.16371142  0.09478110  0.38987048     0.05140
C1073       C  0.07931324  0.23224410  0.43588336    -0.20660
C1074       C  0.11315180  0.23504525  0.43015953    -0.07230
C1075       C  0.12366500  0.25382525  0.40277872     0.13640
C1076       C  0.10039659  0.26900193  0.38196320    -0.20720
C1077       C  0.06660177  0.26635365  0.38781155    -0.07230
C1078       C  0.05603294  0.24740154  0.41502366     0.13630
C1079       C  0.01999701  0.24368080  0.42247988    -0.24070
H1080       H  0.07106626  0.21894216  0.45733252     0.14920
H1081       H  0.10862449  0.28243334  0.36058332     0.14940
C1082       C  0.15962824  0.25772264  0.39526638    -0.24010
H1083       H  0.01588335  0.22926075  0.44519090     0.05160
H1084       H  0.00740361  0.23086269  0.40198847     0.08380
H1085       H  0.00871011  0.26819628  0.42593812     0.08380
H1086       H  0.17126499  0.23327335  0.39260265     0.08370
H1087       H  0.17180505  0.27143568  0.41535054     0.08370
H1088       H  0.16366153  0.27150978  0.37214389     0.05140
C1089       C  0.09333428  0.24258798  0.62892903    -0.20660
C1090       C  0.07113983  0.26758005  0.61944242    -0.07230
C1091       C  0.07236470  0.27853347  0.58625668     0.13640
C1092       C  0.09540794  0.26456626  0.56450419    -0.20720
C1093       C  0.11669313  0.23922393  0.57403037    -0.07230
C1094       C  0.11585548  0.22840194  0.60677710     0.13630
C1095       C  0.13916712  0.20234462  0.61848689    -0.24070
H1096       H  0.09298988  0.23380517  0.65401434     0.14920
H1097       H  0.09651376  0.27337332  0.53940960     0.14940
C1098       C  0.04958903  0.30378771  0.57168549    -0.24010
H1099       H  0.13569357  0.19678856  0.64493882     0.05160
H1100       H  0.16486663  0.21060440  0.61491171     0.08380
H1101       H  0.13500353  0.17951771  0.60426808     0.08380
H1102       H  0.06412276  0.32519477  0.56338613     0.08370
H1103       H  0.03033201  0.31270853  0.58834375     0.08370
H1104       H  0.03688783  0.29309487  0.55002467     0.05140
C1105       C  0.24620508  0.09793800  0.62629858    -0.20660
C1106       C  0.26711014  0.07275949  0.61509905    -0.07230
C1107       C  0.27201705  0.06939802  0.58094181     0.13640
C1108       C  0.25657399  0.09142326  0.55907994    -0.20720
C1109       C  0.23545812  0.11645958  0.57024988    -0.07230
C1110       C  0.23069372  0.11991629  0.60443202     0.13630
C1111       C  0.20992060  0.14724537  0.61791543    -0.24070
H1112       H  0.24162746  0.10012461  0.65242715     0.14920
H1113       H  0.26096443  0.08905737  0.53293570     0.14940
C1114       C  0.29260987  0.04188209  0.56748253    -0.24010
H1115       H  0.20918336  0.14695958  0.64517781     0.05160
H1116       H  0.18445660  0.14465996  0.60865521     0.08380
H1117       H  0.22000849  0.17121632  0.61001489     0.08380
H1118       H  0.28208117  0.01801191  0.57505587     0.08370
H1119       H  0.31803642  0.04389999  0.57707027     0.08370
H1120       H  0.29363094  0.04237605  0.54023419     0.05140
C1121       C  0.33034275  0.29423905  0.57947189    -0.20660
C1122       C  0.31709310  0.32327499  0.59298695    -0.07230
C1123       C  0.28371473  0.33073225  0.58506744     0.13640
C1124       C  0.26404516  0.30651654  0.57106902    -0.20720
C1125       C  0.27648888  0.27591293  0.56210107    -0.07230
C1126       C  0.31046905  0.26999898  0.56537606     0.13630
C1127       C  0.32623495  0.23850821  0.55406081    -0.24070
H1128       H  0.35643356  0.28968059  0.58085412     0.14920
H1129       H  0.23834462  0.31182970  0.56665197     0.14940
C1130       C  0.26777371  0.36385186  0.58882276    -0.24010
H1131       H  0.35320074  0.23858422  0.55804864     0.05160
H1132       H  0.32178067  0.23475773  0.52743220     0.08380
H1133       H  0.31604098  0.21761080  0.56812234     0.08380
H1134       H  0.28249412  0.38264625  0.57584135     0.08370
H1135       H  0.26402716  0.36979371  0.61491722     0.08370
H1136       H  0.24296785  0.36483690  0.57750139     0.05140
C1137       C  0.30682445  0.31785192  0.42280156    -0.20660
C1138       C  0.30124738  0.31429802  0.38916448    -0.07230
C1139       C  0.27675043  0.29295381  0.37731653     0.13640
C1140       C  0.25844130  0.27491997  0.39978822    -0.20720
C1141       C  0.26506654  0.27740384  0.43333319    -0.07230
C1142       C  0.28894022  0.29944040  0.44524062     0.13630
C1143       C  0.29530204  0.30380334  0.48145053    -0.24070
H1144       H  0.32568009  0.33454230  0.43138097     0.14920
H1145       H  0.23981570  0.25798552  0.39120045     0.14940
C1146       C  0.27077421  0.28830476  0.34116439    -0.24010
H1147       H  0.31425347  0.32273637  0.48630402     0.05160
H1148       H  0.30412193  0.28046944  0.49211620     0.08380
H1149       H  0.27235336  0.31148982  0.49392890     0.08380
H1150       H  0.29280095  0.27707831  0.32996343     0.08370
H1151       H  0.26551829  0.31222704  0.32938921     0.08370
H1152       H  0.24969316  0.27174391  0.33638248     0.05140
C1153       C  0.40477803  0.10422709  0.78616535    -0.20660
C1154       C  0.42602672  0.11896500  0.76376646    -0.07230
C1155       C  0.42445604  0.10896269  0.73024278     0.13640
C1156       C  0.40092759  0.08579111  0.72004798    -0.20720
C1157       C  0.37861923  0.07183101  0.74213031    -0.07230
C1158       C  0.38118951  0.08099540  0.77608082     0.13630
C1159       C  0.35976425  0.06644722  0.80251451    -0.24070
H1160       H  0.40623962  0.11144961  0.81175233     0.14920
H1161       H  0.39992685  0.07865644  0.69442938     0.14940
C1162       C  0.44825541  0.12166748  0.70491683    -0.24010
H1163       H  0.36642243  0.07556411  0.82736232     0.05160
H1164       H  0.36261755  0.03941881  0.80286143     0.08380
H1165       H  0.33372248  0.07323672  0.79828041     0.08380
H1166       H  0.47384710  0.11767857  0.71343723     0.08370
H1167       H  0.44396916  0.14809188  0.70041164     0.08370
H1168       H  0.44540947  0.10894944  0.68094998     0.05140
C1169       C  0.58999654  0.24664185  0.93872974    -0.20660
C1170       C  0.61478474  0.26835859  0.92874270    -0.07230
C1171       C  0.61909137  0.27426136  0.89498646     0.13640
C1172       C  0.59817385  0.25896033  0.87207386    -0.20720
C1173       C  0.57296214  0.23733905  0.88182690    -0.07230
C1174       C  0.56894202  0.23123012  0.91586596     0.13630
C1175       C  0.54222158  0.20913137  0.92847404    -0.24070
H1176       H  0.58747059  0.24129735  0.96467195     0.14920
H1177       H  0.60150725  0.26411792  0.84621478     0.14940
C1178       C  0.64609629  0.29641429  0.88315902    -0.24010
H1179       H  0.54213129  0.20794974  0.95572441     0.05160
H1180       H  0.54598509  0.18391109  0.91902696     0.08380
H1181       H  0.51786795  0.21831039  0.92043850     0.08380
H1182       H  0.67024268  0.28669122  0.89114836     0.08370
H1183       H  0.64269028  0.32129701  0.89363091     0.08370
H1184       H  0.64629672  0.29843268  0.85596698     0.05140
C1185       C  0.57230545  0.08814777  0.78097717    -0.20660
C1186       C  0.56727514  0.11703873  0.76334036    -0.07230
C1187       C  0.58448316  0.12108609  0.73310965     0.13640
C1188       C  0.60554788  0.09614683  0.72142038    -0.20720
C1189       C  0.61054339  0.06707397  0.73898175    -0.07230
C1190       C  0.59340819  0.06324218  0.76943228     0.13630
C1191       C  0.59624337  0.03267459  0.79001187    -0.24070
H1192       H  0.55899098  0.08469580  0.80372370     0.14920
H1193       H  0.61882332  0.09975539  0.69868331     0.14940
C1194       C  0.58186479  0.15219226  0.71334317    -0.24010
H1195       H  0.57872391  0.03276132  0.81087685     0.05160
H1196       H  0.62119902  0.03069222  0.80074359     0.08380
H1197       H  0.59074367  0.01085969  0.77477422     0.08380
H1198       H  0.58775085  0.17357784  0.72914597     0.08370
H1199       H  0.55684138  0.15484559  0.70294274     0.08370
H1200       H  0.59922360  0.15232509  0.69234844     0.05140
C1201       C  0.41173078  0.28028541  0.92628834    -0.20660
C1202       C  0.38158957  0.26416710  0.92908511    -0.07230
C1203       C  0.37654694  0.23522628  0.91001377     0.13640
C1204       C  0.40174186  0.22317943  0.88949414    -0.20720
C1205       C  0.43203513  0.23913871  0.88681832    -0.07230
C1206       C  0.43690700  0.26835711  0.90565940     0.13630
C1207       C  0.46886126  0.28704064  0.90513374    -0.24070
H1208       H  0.41594689  0.30199807  0.94104049     0.14920
H1209       H  0.39742695  0.20144240  0.87481189     0.14940
C1210       C  0.34421112  0.21720592  0.91013733    -0.24010
H1211       H  0.46926536  0.30700146  0.92369276     0.05160
H1212       H  0.47250390  0.29869555  0.88083899     0.08380
H1213       H  0.48961748  0.27035123  0.91068520     0.08380
H1214       H  0.32388962  0.23446337  0.90459064     0.08370
H1215       H  0.34004676  0.20542945  0.93427718     0.08370
H1216       H  0.34355718  0.19744824  0.89136877     0.05140
C1217       C  0.55054923  0.28355543  0.69567204    -0.20660
C1218       C  0.56460634  0.26772928  0.72268773    -0.07230
C1219       C  0.59745704  0.27322176  0.73155028     0.13640
C1220       C  0.61581684  0.29525014  0.71306344    -0.20720
C1221       C  0.60155769  0.31169765  0.68642561    -0.07230
C1222       C  0.56881119  0.30572766  0.67728711     0.13630
C1223       C  0.55305601  0.32334607  0.64886490    -0.24070
H1224       H  0.52498390  0.27924910  0.68962342     0.14920
H1225       H  0.64130668  0.29971361  0.71929296     0.14940
C1226       C  0.61280162  0.25607940  0.76048658    -0.24010
H1227       H  0.52691314  0.31629448  0.64576793     0.05160
H1228       H  0.56616254  0.31733885  0.62576034     0.08380
H1229       H  0.55413182  0.35018149  0.65312359     0.08380
H1230       H  0.61163469  0.22917188  0.75674085     0.08370
H1231       H  0.59936865  0.26256879  0.78327144     0.08370
H1232       H  0.63892771  0.26309625  0.76378221     0.05140
C1233       C  0.40131875  0.26210637  0.72273562    -0.20660
C1234       C  0.42977332  0.27705517  0.73473154    -0.07230
C1235       C  0.43788767  0.30925832  0.72566638     0.13640
C1236       C  0.41744632  0.32571775  0.70379442    -0.20720
C1237       C  0.38909336  0.31073905  0.69134198    -0.07230
C1238       C  0.38032970  0.27887179  0.70147980     0.13630
C1239       C  0.34854680  0.26294899  0.69115478    -0.24070
H1240       H  0.39567635  0.23719923  0.72995749     0.14920
H1241       H  0.42347411  0.35048099  0.69637469     0.14940
C1242       C  0.46850604  0.32584601  0.73820639    -0.24010
H1243       H  0.34480590  0.23913847  0.70372158     0.05160
H1244       H  0.34847139  0.25802459  0.66440192     0.08380
H1245       H  0.32758264  0.27911551  0.69752994     0.08380
H1246       H  0.49046518  0.31150796  0.73096284     0.08370
H1247       H  0.46756669  0.32776979  0.76538012     0.08370
H1248       H  0.47118000  0.35094501  0.72812284     0.02370
C1249       C  0.77663273  0.58326974  0.90792498    -0.20660
C1250       C  0.75548929  0.57500068  0.88190110    -0.07230
C1251       C  0.72258722  0.58752857  0.88313265     0.13640
C1252       C  0.71307827  0.60925131  0.90821938    -0.20720
C1253       C  0.73485167  0.61879841  0.93275118    -0.07230
C1254       C  0.76673290  0.60461964  0.93334221     0.13630
C1255       C  0.79016357  0.61095309  0.96138497    -0.24070
H1256       H  0.80115650  0.57302924  0.90847827     0.14920
H1257       H  0.68861775  0.61971797  0.90814437     0.14940
C1258       C  0.69675630  0.57892755  0.85821535    -0.24010
H1259       H  0.81265779  0.59571032  0.95939519     0.05160
H1260       H  0.77808476  0.60495371  0.98505597     0.08380
H1261       H  0.79803946  0.63691208  0.96156813     0.08380
H1262       H  0.69309078  0.55203411  0.85718492     0.08370
H1263       H  0.70458399  0.58863669  0.83434699     0.08370
H1264       H  0.67258299  0.59019331  0.86383271     0.05140
C1265       C  0.90978920  0.57728946  0.78061168    -0.20660
C1266       C  0.87938983  0.57550900  0.76466054    -0.07230
C1267       C  0.87450889  0.59544064  0.73635140     0.13640
C1268       C  0.90042338  0.61488726  0.72401304    -0.20720
C1269       C  0.93126940  0.61607370  0.73939529    -0.07230
C1270       C  0.93550615  0.59731623  0.76881666     0.13630
C1271       C  0.96714285  0.59747901  0.78815144    -0.24070
H1272       H  0.91376219  0.56218612  0.80210978     0.14920
H1273       H  0.89627311  0.62985617  0.70246022     0.14940
C1274       C  0.84155869  0.59735424  0.71947401    -0.24010
H1275       H  0.96665916  0.57969221  0.80873923     0.05160
H1276       H  0.97134098  0.62198462  0.79914848     0.08380
H1277       H  0.98796890  0.59072773  0.77210114     0.08380
H1278       H  0.82223382  0.60348319  0.73768517     0.08370
H1279       H  0.83562963  0.57381331  0.70728004     0.08370
H1280       H  0.84116141  0.61654403  0.70019315     0.05140
C1281       C  0.89546161  0.37496177  0.75535240    -0.20660
C1282       C  0.92239186  0.38493162  0.73609008    -0.07230
C1283       C  0.92762653  0.41896114  0.73170350     0.13640
C1284       C  0.90575705  0.44167542  0.74611253    -0.20720
C1285       C  0.87906550  0.43150617  0.76540156    -0.07230
C1286       C  0.87382034  0.39771021  0.76978942     0.13630
C1287       C  0.84533758  0.38568579  0.78980500    -0.24070
H1288       H  0.89141997  0.34905685  0.75938420     0.14920
H1289       H  0.90926903  0.46764916  0.74197634     0.14940
C1290       C  0.95673084  0.43160404  0.71283749    -0.24010
H1291       H  0.84447582  0.35853602  0.79086453     0.05160
H1292       H  0.82194344  0.39452523  0.77902252     0.08380
H1293       H  0.84775369  0.39517177  0.81520394     0.08380
H1294       H  0.95529873  0.42328114  0.68692208     0.08370
H1295       H  0.97981331  0.42251823  0.72416208     0.08370
H1296       H  0.95762518  0.45877969  0.71280435     0.05140
C1297       C  0.73350219  0.44539598  0.90688965    -0.20660
C1298       C  0.75809941  0.43567147  0.88451889    -0.07230
C1299       C  0.76781514  0.40246787  0.88451294     0.13640
C1300       C  0.75355318  0.38040108  0.90707271    -0.20720
C1301       C  0.72927354  0.39019949  0.92978294    -0.07230
C1302       C  0.71931612  0.42343499  0.92960279     0.13630
C1303       C  0.69481571  0.43712603  0.95363162    -0.24070
H1304       H  0.72541577  0.47069644  0.90690153     0.14920
H1305       H  0.76165419  0.35510799  0.90714949     0.14940
C1306       C  0.79252293  0.38998743  0.86015054    -0.24010
H1307       H  0.70647422  0.45705402  0.96810296     0.05160
H1308       H  0.67354941  0.44737431  0.94002536     0.08380
H1309       H  0.68547954  0.41869934  0.97112523     0.08380
H1310       H  0.81630718  0.40252359  0.86423429     0.08370
H1311       H  0.78373458  0.39482427  0.83478411     0.08370
H1312       H  0.79663632  0.36322286  0.86264444     0.05140
C1313       C  0.72179793  0.56150532  0.68646771    -0.20660
C1314       C  0.72596856  0.56958378  0.71968429    -0.07230
C1315       C  0.70982712  0.59697381  0.73293833     0.13640
C1316       C  0.69026266  0.61611667  0.71264394    -0.20720
C1317       C  0.68437970  0.60721262  0.67986291    -0.07230
C1318       C  0.70032329  0.57944197  0.66648906     0.13630
C1319       C  0.69427422  0.56713538  0.63208257    -0.24070
H1320       H  0.73386403  0.53996280  0.67658636     0.14920
H1321       H  0.67884903  0.63789876  0.72274436     0.14940
C1322       C  0.71203544  0.60529128  0.76873140    -0.24010
H1323       H  0.68624562  0.54118484  0.63303297     0.05160
H1324       H  0.71733244  0.56864642  0.61768663     0.08380
H1325       H  0.67485727  0.58090079  0.61899435     0.08380
H1326       H  0.73807918  0.60759871  0.77642577     0.08370
H1327       H  0.69986472  0.58531398  0.78229943     0.08370
H1328       H  0.69913275  0.62848921  0.77479606     0.05140
C1329       C  0.68815775  0.44407167  0.72521965    -0.20660
C1330       C  0.72134604  0.43566068  0.72851423    -0.07230
C1331       C  0.73462997  0.40942378  0.71052075     0.13640
C1332       C  0.71402227  0.39182921  0.68967094    -0.20720
C1333       C  0.68085354  0.40057144  0.68571626    -0.07230
C1334       C  0.66776762  0.42721279  0.70348133     0.13630
C1335       C  0.63296831  0.43911691  0.69942462    -0.24070
H1336       H  0.67844549  0.46492311  0.73859898     0.14920
H1337       H  0.72374763  0.37069527  0.67681308     0.14940
C1338       C  0.77008122  0.39932911  0.71399212    -0.24010
H1339       H  0.63315403  0.46539957  0.69252534     0.05160
H1340       H  0.61959740  0.43634013  0.72298696     0.08380
H1341       H  0.61934117  0.42584871  0.67996892     0.08380
H1342       H  0.77547993  0.39372347  0.74009213     0.08370
H1343       H  0.78647548  0.41923061  0.70548197     0.08370
H1344       H  0.77575545  0.37717977  0.69917809     0.05140
C1345       C  0.56807028  0.77721101  0.91884819    -0.20660
C1346       C  0.56744571  0.76386313  0.88717502    -0.07230
C1347       C  0.58851713  0.73684370  0.88024009     0.13640
C1348       C  0.60960822  0.72434879  0.90485383    -0.20720
C1349       C  0.61048647  0.73792417  0.93650006    -0.07230
C1350       C  0.58899460  0.76465286  0.94350019     0.13630
C1351       C  0.58720686  0.77976491  0.97728500    -0.24070
H1352       H  0.55146892  0.79715277  0.92459216     0.14920
H1353       H  0.62622574  0.70444332  0.89903636     0.14940
C1354       C  0.58974852  0.72159209  0.84649192    -0.24010
H1355       H  0.56673464  0.79761991  0.97929186     0.05160
H1356       H  0.61014845  0.79325532  0.98276456     0.08380
H1357       H  0.58318889  0.76042946  0.99597948     0.08380
H1358       H  0.59484691  0.74071290  0.82784769     0.08370
H1359       H  0.56615449  0.70934311  0.84075214     0.08370
H1360       H  0.60932211  0.70274283  0.84465261     0.05140
C1361       C  0.60379816  0.87026739  0.75405737    -0.20660
C1362       C  0.57377947  0.88128367  0.76719534    -0.07230
C1363       C  0.56560520  0.91481105  0.76384242     0.13640
C1364       C  0.58765230  0.93629089  0.74804479    -0.20720
C1365       C  0.61792344  0.92534288  0.73565887    -0.07230
C1366       C  0.62608485  0.89190006  0.73892026     0.13630
C1367       C  0.65819119  0.87898220  0.72597508    -0.24070
H1368       H  0.60975749  0.84443989  0.75549030     0.14920
H1369       H  0.58148105  0.96197271  0.74587055     0.14940
C1370       C  0.53316988  0.92781353  0.77588124    -0.24010
H1371       H  0.66052551  0.85216022  0.72973752     0.05160
H1372       H  0.67896002  0.89109452  0.73879476     0.08380
H1373       H  0.65993166  0.88395748  0.69923956     0.08380
H1374       H  0.53119849  0.92417885  0.80280557     0.08370
H1375       H  0.51276321  0.91476091  0.76339174     0.08370
H1376       H  0.53043021  0.95438880  0.77083264     0.05140
C1377       C  0.43370488  0.74392166  0.90735093    -0.20660
C1378       C  0.42408957  0.76728687  0.88389509    -0.07230
C1379       C  0.39067687  0.77560997  0.88135491     0.13640
C1380       C  0.36781198  0.76097600  0.90269718    -0.20720
C1381       C  0.37723656  0.73773597  0.92667991    -0.07230
C1382       C  0.41092834  0.72925115  0.92887796     0.13630
C1383       C  0.42336535  0.70545064  0.95422683    -0.24070
H1384       H  0.45931704  0.73680607  0.90853647     0.14920
H1385       H  0.34224952  0.76791006  0.90059648     0.14940
C1386       C  0.37911116  0.79952667  0.85571898    -0.24010
H1387       H  0.45040769  0.70233198  0.95285358     0.05160
H1388       H  0.41203053  0.68107462  0.95019523     0.08380
H1389       H  0.41733343  0.71447742  0.97924219     0.08380
H1390       H  0.38512551  0.79011198  0.83084394     0.08370
H1391       H  0.39145924  0.82346783  0.85945592     0.08370
H1392       H  0.35217539  0.80350909  0.85696996     0.05140
C1393       C  0.43240331  0.91784220  0.77178926    -0.20660
C1394       C  0.42940652  0.88442157  0.76437592    -0.07230
C1395       C  0.40442614  0.87464597  0.74196854     0.13640
C1396       C  0.38319737  0.89822737  0.72788457    -0.20720
C1397       C  0.38616515  0.93163218  0.73535710    -0.07230
C1398       C  0.41124827  0.94143368  0.75763696     0.13630
C1399       C  0.41636272  0.97707207  0.76592437    -0.24070
H1400       H  0.45193287  0.92564506  0.78810641     0.14920
H1401       H  0.36360900  0.89042742  0.71163097     0.14940
C1402       C  0.39951465  0.83907391  0.73342759    -0.24010
H1403       H  0.43801711  0.98070235  0.78212142     0.05160
H1404       H  0.39463080  0.98699632  0.77893426     0.08380
H1405       H  0.42042156  0.99124117  0.74304342     0.08380
H1406       H  0.39565290  0.82466578  0.75619457     0.08370
H1407       H  0.42128816  0.82955576  0.72021348     0.08370
H1408       H  0.37784043  0.83541682  0.71726019     0.05140
C1409       C  0.42616044  0.69826259  0.67587253    -0.20660
C1410       C  0.39524164  0.68934564  0.68767865    -0.07230
C1411       C  0.38316290  0.70301230  0.71741683     0.13640
C1412       C  0.40317259  0.72400147  0.73533079    -0.20720
C1413       C  0.43406711  0.73234292  0.72374573    -0.07230
C1414       C  0.44585051  0.71989566  0.69366889     0.13630
C1415       C  0.47923302  0.72896883  0.68069375    -0.24070
H1416       H  0.43475408  0.68833901  0.65271703     0.14920
H1417       H  0.39476758  0.73402401  0.75853577     0.14940
C1418       C  0.34889014  0.69703504  0.72996857    -0.24010
H1419       H  0.48452794  0.71671283  0.65691308     0.05160
H1420       H  0.49846146  0.72157458  0.69843709     0.08380
H1421       H  0.48055770  0.75581884  0.67685158     0.08380
H1422       H  0.34541319  0.67102491  0.73669439     0.08370
H1423       H  0.33097899  0.70427210  0.71095840     0.08370
H1424       H  0.34346626  0.71175324  0.75227660     0.05140
C1425       C  0.59022802  0.73659164  0.71959758    -0.20660
C1426       C  0.56440219  0.72144060  0.73563196    -0.07230
C1427       C  0.55619205  0.68866272  0.72848202     0.13640
C1428       C  0.57312199  0.67242150  0.70336800    -0.20720
C1429       C  0.59842472  0.68808119  0.68608422    -0.07230
C1430       C  0.60775621  0.72032780  0.69537591     0.13630
C1431       C  0.63575449  0.73858325  0.68022047    -0.24070
H1432       H  0.59604827  0.76186907  0.72548006     0.14920
H1433       H  0.56682305  0.64734017  0.69733585     0.14940
C1434       C  0.52927454  0.67113322  0.74667770    -0.24010
H1435       H  0.64294783  0.76034026  0.69497967     0.05160
H1436       H  0.62738984  0.74795211  0.65615350     0.08380
H1437       H  0.65777277  0.72267093  0.67849336     0.08380
H1438       H  0.50563372  0.68425595  0.74362811     0.08370
H1439       H  0.53551134  0.66991133  0.77319826     0.08370
H1440       H  0.52596579  0.64569942  0.73758040     0.05140
C1441       C  0.09760709  0.41486555  0.78403106    -0.20660
C1442       C  0.11409568  0.43458145  0.76130780    -0.07230
C1443       C  0.10609889  0.43027089  0.72722498     0.13640
C1444       C  0.08234610  0.40699333  0.71753672    -0.20720
C1445       C  0.06568715  0.38748613  0.74028779    -0.07230
C1446       C  0.07382957  0.39160941  0.77431625     0.13630
C1447       C  0.05820839  0.37155873  0.80119147    -0.24070
H1448       H  0.10338243  0.41762766  0.80986542     0.14920
H1449       H  0.07652832  0.40421034  0.69171083     0.14940
C1450       C  0.12200864  0.44989072  0.70018338    -0.24010
H1451       H  0.06866453  0.37726037  0.82575060     0.05160
H1452       H  0.06244612  0.34509389  0.79659169     0.08380
H1453       H  0.03152883  0.37687485  0.80253282     0.08380
H1454       H  0.14883734  0.44523413  0.69983531     0.08370
H1455       H  0.11692871  0.47636522  0.70375594     0.08370
H1456       H  0.11246317  0.44318901  0.67550689     0.05140
C1457       C  0.10576141  0.63014883  0.74366155    -0.20660
C1458       C  0.07630252  0.61862043  0.72965016    -0.07230
C1459       C  0.06964543  0.58464014  0.73070558     0.13640
C1460       C  0.09159051  0.56354912  0.74719127    -0.20720
C1461       C  0.12056993  0.57533938  0.76176037    -0.07230
C1462       C  0.12825128  0.60887329  0.75889764     0.13630
C1463       C  0.16014613  0.62221839  0.77205693    -0.24070
H1464       H  0.11106251  0.65614452  0.74294588     0.14920
H1465       H  0.08663693  0.53748143  0.74783288     0.14940
C1466       C  0.03942787  0.57051163  0.71476396    -0.24010
H1467       H  0.16212148  0.64906680  0.76828325     0.05160
H1468       H  0.18110530  0.61039915  0.75929711     0.08380
H1469       H  0.16197001  0.61724297  0.79878315     0.08380
H1470       H  0.04029046  0.57494353  0.68790130     0.08370
H1471       H  0.01708631  0.58213984  0.72492785     0.08370
H1472       H  0.03755941  0.54368631  0.71874401     0.05140
C1473       C  0.22932568  0.56619064  0.92031990    -0.20660
C1474       C  0.23107159  0.57354141  0.88672387    -0.07230
C1475       C  0.24802753  0.60226287  0.87703704     0.13640
C1476       C  0.26248126  0.62287246  0.90096983    -0.20720
C1477       C  0.26080634  0.61547481  0.93458681    -0.07230
C1478       C  0.24381758  0.58674722  0.94424733     0.13630
C1479       C  0.24201894  0.57704335  0.97985830    -0.24070
H1480       H  0.21753626  0.54363913  0.92781190     0.14920
H1481       H  0.27456772  0.64525037  0.89343313     0.14940
C1482       C  0.25061581  0.61136182  0.84129690    -0.24010
H1483       H  0.22893741  0.55344536  0.98318815     0.05160
H1484       H  0.22878057  0.59596815  0.99424450     0.08380
H1485       H  0.26725887  0.57418921  0.98970284     0.08380
H1486       H  0.22567448  0.61364056  0.83050273     0.08370
H1487       H  0.26452292  0.59230213  0.82777663     0.08370
H1488       H  0.26354499  0.63503523  0.83790944     0.05140
C1489       C  0.23844808  0.43655749  0.91397011    -0.20660
C1490       C  0.23344444  0.42793480  0.88093165    -0.07230
C1491       C  0.24373666  0.39663810  0.87003403     0.13640
C1492       C  0.25831555  0.37470833  0.89238888    -0.20720
C1493       C  0.26399718  0.38353831  0.92525466    -0.07230
C1494       C  0.25351679  0.41474863  0.93623292     0.13630
C1495       C  0.25734935  0.42470524  0.97167585    -0.24070
H1496       H  0.23132430  0.46080090  0.92218518     0.14920
H1497       H  0.26511316  0.35034868  0.88424825     0.14940
C1498       C  0.23887204  0.38613142  0.83484691    -0.24010
H1499       H  0.24780468  0.44978450  0.97621630     0.05160
H1500       H  0.28368866  0.42425678  0.97863786     0.08380
H1501       H  0.24357152  0.40754345  0.98762209     0.08380
H1502       H  0.25320782  0.40209324  0.81817813     0.08370
H1503       H  0.21245651  0.38773968  0.82831830     0.08370
H1504       H  0.24707399  0.36051355  0.83074308     0.05140
C1505       C  0.27982191  0.39705319  0.68283727    -0.20660
C1506       C  0.31375894  0.40262807  0.68315813    -0.07230
C1507       C  0.32718730  0.42530489  0.70548838     0.13640
C1508       C  0.30639541  0.44084912  0.72768574    -0.20720
C1509       C  0.27211580  0.43662265  0.72637220    -0.07230
C1510       C  0.25859737  0.41439432  0.70332159     0.13630
C1511       C  0.22226000  0.40768648  0.70054572    -0.24070
H1512       H  0.26994284  0.37778518  0.66760318     0.14920
H1513       H  0.31727725  0.45736674  0.74544564     0.14940
C1514       C  0.36323803  0.43360079  0.70661976    -0.24010
H1515       H  0.21687515  0.38780396  0.68268707     0.05160
H1516       H  0.20928124  0.42986031  0.69165809     0.08380
H1517       H  0.21236322  0.40008030  0.72473349     0.08380
H1518       H  0.37743791  0.42158761  0.68677078     0.08370
H1519       H  0.37367423  0.42614251  0.73067873     0.08370
H1520       H  0.36641247  0.46041645  0.70367571     0.05140
C1521       C  0.26499079  0.60016528  0.72615970    -0.20660
C1522       C  0.27704455  0.56900136  0.73296457    -0.07230
C1523       C  0.30573066  0.55730689  0.71770829     0.13640
C1524       C  0.32238260  0.57754524  0.69598586    -0.20720
C1525       C  0.31020187  0.60861997  0.68868768    -0.07230
C1526       C  0.28120392  0.62033533  0.70392063     0.13630
C1527       C  0.26736059  0.65396311  0.69737196    -0.24070
H1528       H  0.24243752  0.60832053  0.73767809     0.14920
H1529       H  0.34477481  0.56908411  0.68436948     0.14940
C1530       C  0.31796552  0.52311024  0.72335444    -0.24010
H1531       H  0.24577267  0.65930338  0.71312312     0.05160
H1532       H  0.25915297  0.65597485  0.67150557     0.08380
H1533       H  0.28610419  0.67282395  0.70250005     0.08380
H1534       H  0.29901635  0.50569204  0.71463841     0.08370
H1535       H  0.32275028  0.51927168  0.74991117     0.08370
H1536       H  0.34098549  0.51806074  0.70968733     0.05140
C1537       C  0.10065564  0.37375871  0.25387875    -0.20660
C1538       C  0.07016293  0.38470755  0.26594851    -0.07230
C1539       C  0.06167109  0.41799897  0.26146417     0.13640
C1540       C  0.08386210  0.43941001  0.24578576    -0.20720
C1541       C  0.11435809  0.42846984  0.23390058    -0.07230
C1542       C  0.12299276  0.39529742  0.23855097     0.13630
C1543       C  0.15606027  0.38280781  0.22783378    -0.24070
H1544       H  0.10697425  0.34810026  0.25637147     0.14920
H1545       H  0.07753320  0.46504553  0.24312356     0.14940
C1546       C  0.02877968  0.43078931  0.27234940    -0.24010
H1547       H  0.15905403  0.35632153  0.23318327     0.05160
H1548       H  0.17574779  0.39632953  0.24098372     0.08380
H1549       H  0.15898146  0.38645749  0.20099291     0.08380
H1550       H  0.02632299  0.42775599  0.29929729     0.08370
H1551       H  0.00885194  0.41709783  0.25974918     0.08370
H1552       H  0.02575424  0.45717905  0.26655284     0.05140
C1553       C  0.21598282  0.40705217  0.10405871    -0.20660
C1554       C  0.23793192  0.42982757  0.11738880    -0.07230
C1555       C  0.27116946  0.42899830  0.10634264     0.13640
C1556       C  0.28107365  0.40602603  0.08232153    -0.20720
C1557       C  0.25913757  0.38320020  0.06885765    -0.07230
C1558       C  0.22600835  0.38358137  0.08056551     0.13630
C1559       C  0.20082806  0.35879351  0.06951793    -0.24070
H1560       H  0.19081955  0.40718731  0.11262710     0.14920
H1561       H  0.30624752  0.40609655  0.07380687     0.14940
C1562       C  0.29659790  0.45269150  0.11908507    -0.24010
H1563       H  0.17743719  0.36121844  0.08327635     0.05160
H1564       H  0.21023763  0.33364173  0.07379062     0.08380
H1565       H  0.19487888  0.36231374  0.04317168     0.08380
H1566       H  0.30172827  0.44780282  0.14538342     0.08370
H1567       H  0.28783528  0.47820792  0.11606695     0.08370
H1568       H  0.32024046  0.45037551  0.10574998     0.05140
C1569       C  0.22442835  0.60441628  0.12199967    -0.20660
C1570       C  0.22896484  0.57139528  0.11386478    -0.07230
C1571       C  0.24887074  0.56369181  0.08630245     0.13640
C1572       C  0.26379086  0.58893354  0.06804179    -0.20720
C1573       C  0.25890663  0.62209657  0.07576211    -0.07230
C1574       C  0.23892396  0.62973442  0.10343482     0.13630
C1575       C  0.23385695  0.66450151  0.11465185    -0.24070
H1576       H  0.21037022  0.61041668  0.14377217     0.14920
H1577       H  0.27853978  0.58256487  0.04687912     0.14940
C1578       C  0.25435910  0.52898972  0.07494466    -0.24010
H1579       H  0.22053572  0.66575592  0.13839351     0.05160
H1580       H  0.21896967  0.67813744  0.09642760     0.08380
H1581       H  0.25805287  0.67650654  0.11810944     0.08380
H1582       H  0.24067809  0.51079758  0.08971478     0.08370
H1583       H  0.28092713  0.52310801  0.07617699     0.08370
H1584       H  0.24599670  0.52644723  0.04909368     0.05140
C1585       C  0.10523934  0.59633693  0.21895385    -0.20660
C1586       C  0.11283104  0.56902581  0.23814452    -0.07230
C1587       C  0.09746555  0.56582885  0.26936699     0.13640
C1588       C  0.07537831  0.59005145  0.28053334    -0.20720
C1589       C  0.06783246  0.61755884  0.26144067    -0.07230
C1590       C  0.08333881  0.62069958  0.23014432     0.13630
C1591       C  0.07836534  0.65040588  0.20874142    -0.24070
H1592       H  0.11734447  0.59914157  0.19544987     0.14920
H1593       H  0.06343450  0.58715054  0.30410151     0.14940
C1594       C  0.10339287  0.53629367  0.29076914    -0.24010
H1595       H  0.09424453  0.64974773  0.18660878     0.05160
H1596       H  0.08479814  0.67279118  0.22278407     0.08380
H1597       H  0.05264832  0.65177997  0.19992004     0.08380
H1598       H  0.12920875  0.53578217  0.29939518     0.08370
H1599       H  0.09794403  0.51361204  0.27674071     0.08370
H1600       H  0.08751577  0.53651152  0.31290847     0.05140
C1601       C  0.32080220  0.58004471  0.29976913    -0.20660
C1602       C  0.30635901  0.60746486  0.31452826    -0.07230
C1603       C  0.27382447  0.61657400  0.30621869     0.13640
C1604       C  0.25616105  0.59698526  0.28426914    -0.20720
C1605       C  0.27080550  0.56975869  0.26957080    -0.07230
C1606       C  0.30343655  0.56111376  0.27716551     0.13630
C1607       C  0.31967704  0.53145883  0.26224180    -0.24070
H1608       H  0.34596823  0.57372894  0.30573103     0.14920
H1609       H  0.23093350  0.60301457  0.27828055     0.14940
C1610       C  0.25812912  0.64760898  0.31877655    -0.24010
H1611       H  0.34543145  0.52864248  0.27075775     0.05160
H1612       H  0.31997599  0.53362032  0.23507710     0.08380
H1613       H  0.30608238  0.50912001  0.26943332     0.08380
H1614       H  0.27381571  0.66889135  0.31255632     0.08370
H1615       H  0.25446936  0.64637840  0.34568371     0.08370
H1616       H  0.23363219  0.65177461  0.30752684     0.05140
C1617       C  0.29554694  0.42574112  0.32963856    -0.20660
C1618       C  0.32124800  0.40807996  0.31464097    -0.07230
C1619       C  0.32683446  0.41318559  0.28042778     0.13640
C1620       C  0.30276895  0.42905975  0.26201687    -0.20720
C1621       C  0.27453189  0.44189525  0.27657141    -0.07230
C1622       C  0.27156309  0.44173200  0.31104255     0.13630
C1623       C  0.24352071  0.45844942  0.32846185    -0.24070
H1624       H  0.29295921  0.42531268  0.35610012     0.14920
H1625       H  0.30610588  0.43164151  0.23573114     0.14940
C1626       C  0.35794497  0.40424196  0.26238991    -0.24010
H1627       H  0.24597341  0.45680488  0.35557495     0.05160
H1628       H  0.21995455  0.44665792  0.32158856     0.08380
H1629       H  0.24285776  0.48477253  0.32176099     0.08380
H1630       H  0.36158512  0.37752300  0.26126849     0.08370
H1631       H  0.37917390  0.41664366  0.27413381     0.08370
H1632       H  0.35760747  0.41266656  0.23647131     0.05140
C1633       C  0.40135120  0.78183208  0.10881395    -0.20660
C1634       C  0.43111710  0.76520740  0.11299825    -0.07230
C1635       C  0.43636668  0.73603379  0.09435983     0.13640
C1636       C  0.41152837  0.72394271  0.07328710    -0.20720
C1637       C  0.38156791  0.74034742  0.06943375    -0.07230
C1638       C  0.37677815  0.77006707  0.08731308     0.13630
C1639       C  0.34530527  0.78926453  0.08476657    -0.24070
H1640       H  0.39697253  0.80387183  0.12301998     0.14920
H1641       H  0.41589014  0.70192705  0.05904449     0.14940
C1642       C  0.46862680  0.71792448  0.09551999    -0.24010
H1643       H  0.34435672  0.80969568  0.10278133     0.05160
H1644       H  0.32433645  0.77285254  0.08968226     0.08380
H1645       H  0.34280250  0.80010981  0.05995117     0.08380
H1646       H  0.47216760  0.70647189  0.11992055     0.08370
H1647       H  0.48911238  0.73506633  0.09034738     0.08370
H1648       H  0.46965318  0.69796752  0.07698539     0.05140
C1649       C  0.59091426  0.78608947  0.10656370    -0.20660
C1650       C  0.57300982  0.76268080  0.12409058    -0.07230
C1651       C  0.57940039  0.72888386  0.11750668     0.13640
C1652       C  0.60333775  0.71993331  0.09419373    -0.20720
C1653       C  0.62165142  0.74335150  0.07711656    -0.07230
C1654       C  0.61503678  0.77713282  0.08345879     0.13630
C1655       C  0.63245069  0.80438920  0.06560005    -0.24070
H1656       H  0.58611696  0.81180110  0.11110575     0.14920
H1657       H  0.60791529  0.69422855  0.08937952     0.14940
C1658       C  0.56076920  0.70160977  0.13407408    -0.24010
H1659       H  0.62256380  0.82886276  0.07225525     0.05160
H1660       H  0.62934491  0.80136553  0.03870829     0.08380
H1661       H  0.65890228  0.80443725  0.07210108     0.08380
H1662       H  0.53404660  0.70468804  0.12985360     0.08370
H1663       H  0.56618114  0.70146686  0.16078908     0.08370
H1664       H  0.56775271  0.67715045  0.12436617     0.05140
C1665       C  0.59754446  0.87572758  0.25071504    -0.20660
C1666       C  0.56771832  0.88677672  0.23713445    -0.07230
C1667       C  0.55930961  0.92009412  0.24125900     0.13640
C1668       C  0.58112526  0.94168451  0.25713922    -0.20720
C1669       C  0.61120513  0.93094815  0.26998846    -0.07230
C1670       C  0.61932153  0.89741099  0.26697420     0.13630
C1671       C  0.65091277  0.88460947  0.28109737    -0.24070
H1672       H  0.60347478  0.84989583  0.24925315     0.14920
H1673       H  0.57442613  0.96712883  0.25990971     0.14940
C1674       C  0.52632137  0.93244324  0.23064290    -0.24010
H1675       H  0.65418594  0.85807337  0.27607907     0.05160
H1676       H  0.65111253  0.88843421  0.30809377     0.08380
H1677       H  0.67182772  0.89801358  0.27025709     0.08380
H1678       H  0.50760660  0.91908107  0.24494639     0.08370
H1679       H  0.52268059  0.92791699  0.20399741     0.08370
H1680       H  0.52328999  0.95905167  0.23545255     0.05140
C1681       C  0.43154547  0.91766853  0.23852446    -0.20660
C1682       C  0.42205845  0.88599103  0.22918880    -0.07230
C1683       C  0.38919246  0.87642367  0.23437239     0.13640
C1684       C  0.36721377  0.89794611  0.25023134    -0.20720
C1685       C  0.37732330  0.92898662  0.26136877    -0.07230
C1686       C  0.40979644  0.93915192  0.25467264     0.13630
C1687       C  0.42138801  0.97296499  0.26380969    -0.24070
H1688       H  0.45623278  0.92553006  0.23368895     0.14920
H1689       H  0.34184801  0.89072148  0.25351133     0.14940
C1690       C  0.37717428  0.84386788  0.22199868    -0.24010
H1691       H  0.44725348  0.97715606  0.25635808     0.05160
H1692       H  0.41982426  0.97618855  0.29081166     0.08380
H1693       H  0.40588376  0.99164694  0.25149269     0.08380
H1694       H  0.39242328  0.82402280  0.23235604     0.08370
H1695       H  0.37927438  0.84306677  0.19483158     0.08370
H1696       H  0.35116572  0.83941999  0.22875112     0.05140
C1697       C  0.58411422  0.74982477  0.30065838    -0.20660
C1698       C  0.55959665  0.73335644  0.28287119    -0.07230
C1699       C  0.55598695  0.69905382  0.28667445     0.13640
C1700       C  0.57717106  0.68242118  0.30762965    -0.20720
C1701       C  0.60346901  0.69830333  0.32299706    -0.07230
C1702       C  0.60657458  0.73269636  0.32028867     0.13630
C1703       C  0.63415016  0.75145167  0.33633321    -0.24070
H1704       H  0.58658348  0.77611767  0.29811852     0.14920
H1705       H  0.57470737  0.65610346  0.31023578     0.14940
C1706       C  0.53019800  0.67933072  0.26890174    -0.24010
H1707       H  0.63428122  0.77753133  0.32867552     0.05160
H1708       H  0.65817071  0.74067252  0.32940901     0.08380
H1709       H  0.63121759  0.75126093  0.36338222     0.08380
H1710       H  0.53467340  0.67977818  0.24201595     0.08370
H1711       H  0.50574700  0.68948856  0.27468502     0.08370
H1712       H  0.53024654  0.65321440  0.27645269     0.05140
C1713       C  0.43435671  0.69651808  0.27303081    -0.20660
C1714       C  0.42629437  0.72986292  0.27162369    -0.07230
C1715       C  0.40149209  0.74258806  0.29205304     0.13640
C1716       C  0.38521214  0.72145927  0.31332534    -0.20720
C1717       C  0.39389465  0.68826482  0.31539673    -0.07230
C1718       C  0.41929222  0.67570603  0.29556497     0.13630
C1719       C  0.43171809  0.64108139  0.29917643    -0.24070
H1720       H  0.45336482  0.68694137  0.25716302     0.14920
H1721       H  0.36492206  0.73073259  0.32781487     0.14940
C1722       C  0.39061523  0.77773083  0.29012592    -0.24010
H1723       H  0.45357126  0.63654520  0.28354018     0.05160
H1724       H  0.41275152  0.62309390  0.29188622     0.08380
H1725       H  0.43895382  0.63667900  0.32509227     0.08380
H1726       H  0.38120817  0.78241581  0.26508758     0.08370
H1727       H  0.41117569  0.79454191  0.29592675     0.08370
H1728       H  0.37046549  0.78315822  0.30765208     0.05140
C1729       C  0.76009748  0.43630945  0.08884323    -0.20660
C1730       C  0.76694609  0.42545378  0.12086042    -0.07230
C1731       C  0.75764785  0.39317340  0.12969180     0.13640
C1732       C  0.74242234  0.37265720  0.10630220    -0.20720
C1733       C  0.73490580  0.38379865  0.07457940    -0.07230
C1734       C  0.74409508  0.41598961  0.06575505     0.13630
C1735       C  0.73746680  0.42873877  0.03173374    -0.24070
H1736       H  0.76632515  0.46121911  0.08217939     0.14920
H1737       H  0.73646073  0.34761773  0.11274202     0.14940
C1738       C  0.76437081  0.37992531  0.16357477    -0.24010
H1739       H  0.74633437  0.45424982  0.02867088     0.05160
H1740       H  0.71065419  0.42845771  0.02698876     0.08380
H1741       H  0.75003983  0.41313322  0.01327446     0.08380
H1742       H  0.75011040  0.39374602  0.18217406     0.08370
H1743       H  0.79094738  0.38191074  0.16917442     0.08370
H1744       H  0.75726949  0.35376741  0.16567241     0.05140
C1745       C  0.78186475  0.59465535  0.10612926    -0.20660
C1746       C  0.76082546  0.56923028  0.11563835    -0.07230
C1747       C  0.72759196  0.57049444  0.10410374     0.13640
C1748       C  0.71720920  0.59616055  0.08325503    -0.20720
C1749       C  0.73853314  0.62105882  0.07312887    -0.07230
C1750       C  0.77144645  0.62033580  0.08541390     0.13630
C1751       C  0.79616644  0.64671502  0.07758717    -0.24070
H1752       H  0.80691618  0.59457197  0.11507284     0.14920
H1753       H  0.69220007  0.59636232  0.07418282     0.14940
C1754       C  0.70236650  0.54500378  0.11307085    -0.24010
H1755       H  0.81929647  0.64364542  0.09172531     0.05160
H1756       H  0.78595550  0.67111698  0.08395899     0.08380
H1757       H  0.80288424  0.64578106  0.05120918     0.08380
H1758       H  0.69815608  0.54517841  0.13999867     0.08370
H1759       H  0.71069532  0.52044437  0.10483659     0.08370
H1760       H  0.67826292  0.54971129  0.10120190     0.05140
C1761       C  0.90021557  0.59537736  0.21242965    -0.20660
C1762       C  0.88092343  0.57782731  0.23458245    -0.07230
C1763       C  0.88648924  0.58222946  0.26890038     0.13640
C1764       C  0.90953981  0.60543726  0.27986651    -0.20720
C1765       C  0.92737576  0.62453538  0.25773690    -0.07230
C1766       C  0.92332327  0.61858599  0.22339366     0.13630
C1767       C  0.94381153  0.63575917  0.19783867    -0.24070
H1768       H  0.89667246  0.59143070  0.18633696     0.14920
H1769       H  0.91323188  0.60909423  0.30598026     0.14940
C1770       C  0.86904971  0.56191817  0.29442047    -0.24010
H1771       H  0.93928878  0.62587279  0.17280856     0.05160
H1772       H  0.97028979  0.63239460  0.20339390     0.08380
H1773       H  0.93768822  0.66220870  0.19714518     0.08380
H1774       H  0.87257378  0.53548941  0.28907157     0.08370
H1775       H  0.84250664  0.56789791  0.29483475     0.08370
H1776       H  0.87869573  0.56662868  0.31951538     0.05140
C1777       C  0.90157658  0.44327088  0.26905568    -0.20660
C1778       C  0.88462216  0.43731822  0.23920766    -0.07230
C1779       C  0.88784451  0.40581883  0.22490550     0.13640
C1780       C  0.90846502  0.38227283  0.23976885    -0.20720
C1781       C  0.92607202  0.38856234  0.26902426    -0.07230
C1782       C  0.92199325  0.41949191  0.28404417     0.13630
C1783       C  0.93984564  0.42796573  0.31530062    -0.24070
H1784       H  0.89911202  0.46696718  0.28079661     0.14920
H1785       H  0.91117365  0.35855486  0.22808452     0.14940
C1786       C  0.86913599  0.39630491  0.19440120    -0.24010
H1787       H  0.93457573  0.45340848  0.32339306     0.05160
H1788       H  0.96669173  0.42568549  0.31156102     0.08380
H1789       H  0.93207913  0.41115026  0.33519058     0.08380
H1790       H  0.87700674  0.41169018  0.17342889     0.08370
H1791       H  0.84241491  0.39943113  0.19864994     0.08370
H1792       H  0.87346554  0.37034159  0.18749601     0.05140
C1793       C  0.73686689  0.40597082  0.26839961    -0.20660
C1794       C  0.74235764  0.43719863  0.28070028    -0.07230
C1795       C  0.72819777  0.44767690  0.31040629     0.13640
C1796       C  0.70510716  0.42749085  0.32541759    -0.20720
C1797       C  0.69806683  0.39678099  0.31194278    -0.07230
C1798       C  0.71590154  0.38486583  0.28456901     0.13630
C1799       C  0.71463441  0.35001047  0.27230464    -0.24070
H1800       H  0.74894106  0.39811556  0.24599274     0.14920
H1801       H  0.69310960  0.43522305  0.34787495     0.14940
C1802       C  0.73784727  0.47963981  0.32621740    -0.24010
H1803       H  0.73957863  0.33913984  0.27374175     0.05160
H1804       H  0.70671542  0.34970486  0.24621459     0.08380
H1805       H  0.69811603  0.33408125  0.28667681     0.08380
H1806       H  0.73386161  0.50026324  0.30909559     0.08370
H1807       H  0.76428767  0.47885060  0.33276872     0.08370
H1808       H  0.72359126  0.48442349  0.34894978     0.05140
C1809       C  0.72598850  0.60198499  0.26148600    -0.20660
C1810       C  0.71849398  0.56866211  0.26099549    -0.07230
C1811       C  0.69081028  0.55660891  0.27799537     0.13640
C1812       C  0.67354021  0.57782124  0.29851001    -0.20720
C1813       C  0.68228005  0.61075371  0.30045724    -0.07230
C1814       C  0.70724577  0.62357552  0.28024060     0.13630
C1815       C  0.71373697  0.65985665  0.27800703    -0.24070
H1816       H  0.74656966  0.61100550  0.24730211     0.14920
H1817       H  0.65333107  0.56867070  0.31314485     0.14940
C1818       C  0.67868297  0.52190047  0.27497113    -0.24010
H1819       H  0.73472575  0.66531194  0.26154667     0.05160
H1820       H  0.71923858  0.67030335  0.30244592     0.08380
H1821       H  0.69172038  0.67236097  0.26798084     0.08380
H1822       H  0.69409026  0.50672660  0.25858702     0.08370
H1823       H  0.65341721  0.52206525  0.26473234     0.08370
H1824       H  0.67786900  0.51026163  0.29955275     0.05140
C1825       C  0.40652959  0.26716988  0.12472836    -0.20660
C1826       C  0.42343141  0.23730591  0.11902992    -0.07230
C1827       C  0.41693251  0.22045552  0.08921969     0.13640
C1828       C  0.39436200  0.23377904  0.06656366    -0.20720
C1829       C  0.37825839  0.26377046  0.07222901    -0.07230
C1830       C  0.38431452  0.28052891  0.10180495     0.13630
C1831       C  0.36661305  0.31195570  0.10967565    -0.24070
H1832       H  0.41072951  0.28051303  0.14735232     0.14920
H1833       H  0.38928697  0.22068220  0.04393583     0.14940
C1834       C  0.43375422  0.18873722  0.08058085    -0.24010
H1835       H  0.37355984  0.32161133  0.13423336     0.05160
H1836       H  0.33969786  0.30770845  0.10952357     0.08380
H1837       H  0.37276208  0.33082658  0.09111663     0.08380
H1838       H  0.42770605  0.16980251  0.09911342     0.08370
H1839       H  0.46070561  0.19243351  0.07957489     0.08370
H1840       H  0.42582400  0.17932361  0.05622323     0.05140
C1841       C  0.43389089  0.09842920  0.26535425    -0.20660
C1842       C  0.42809512  0.11468835  0.23523183    -0.07230
C1843       C  0.39787131  0.10892639  0.21914671     0.13640
C1844       C  0.37495582  0.08701847  0.23311341    -0.20720
C1845       C  0.38079705  0.07083520  0.26325586    -0.07230
C1846       C  0.41080690  0.07694227  0.27954957     0.13630
C1847       C  0.41909977  0.06036038  0.31150202    -0.24070
H1848       H  0.45682918  0.10270326  0.27815744     0.14920
H1849       H  0.35201220  0.08262073  0.22036064     0.14940
C1850       C  0.38905285  0.12659112  0.18793024    -0.24010
H1851       H  0.44402202  0.06703343  0.32031970     0.05160
H1852       H  0.41832217  0.03341081  0.30831213     0.08380
H1853       H  0.40126369  0.06780249  0.33067928     0.08380
H1854       H  0.40660840  0.11992108  0.16822307     0.08370
H1855       H  0.38978209  0.15345536  0.19212477     0.08370
H1856       H  0.36400864  0.12013625  0.17929117     0.05140
C1857       C  0.57342902  0.09185249  0.22524658    -0.20660
C1858       C  0.57227620  0.12317730  0.23939247    -0.07230
C1859       C  0.59384227  0.12990082  0.26638300     0.13640
C1860       C  0.61439308  0.10498929  0.27892402    -0.20720
C1861       C  0.61488405  0.07367536  0.26504293    -0.07230
C1862       C  0.59460520  0.06736992  0.23734975     0.13630
C1863       C  0.59479252  0.03444412  0.22067517    -0.24070
H1864       H  0.55726067  0.08621954  0.20485896     0.14920
H1865       H  0.63086851  0.11023443  0.29918047     0.14940
C1866       C  0.59641678  0.16344013  0.28181808    -0.24010
H1867       H  0.57632369  0.03295972  0.20063831     0.05160
H1868       H  0.58901600  0.01532886  0.23892014     0.08380
H1869       H  0.61923219  0.02947986  0.20980487     0.08380
H1870       H  0.57368384  0.16933068  0.29553164     0.08370
H1871       H  0.60090373  0.18211658  0.26256086     0.08370
H1872       H  0.61699090  0.16489981  0.29968718     0.05140
C1873       C  0.59647968  0.25193086  0.12646250    -0.20660
C1874       C  0.56849091  0.23523163  0.11483271    -0.07230
C1875       C  0.56201417  0.23572568  0.08071687     0.13640
C1876       C  0.58418655  0.25136177  0.05914578    -0.20720
C1877       C  0.61221668  0.26798113  0.07075025    -0.07230
C1878       C  0.61838117  0.26804876  0.10492705     0.13630
C1879       C  0.64835199  0.28471679  0.11861708    -0.24070
H1880       H  0.60091371  0.25285647  0.15270144     0.14920
H1881       H  0.57958808  0.25066246  0.03292917     0.14940
C1882       C  0.53108183  0.22070706  0.06718970    -0.24010
H1883       H  0.64998136  0.28213199  0.14571908     0.05160
H1884       H  0.64756674  0.31119797  0.11263114     0.08380
H1885       H  0.67072382  0.27380540  0.10766987     0.08380
H1886       H  0.50936296  0.23302809  0.07810757     0.08370
H1887       H  0.53035495  0.19425121  0.07327664     0.08370
H1888       H  0.52952081  0.22327059  0.04008232     0.05140
C1889       C  0.39978659  0.27925724  0.26397821    -0.20660
C1890       C  0.43156991  0.27233500  0.27444510    -0.07230
C1891       C  0.44382387  0.28541841  0.30410901     0.13640
C1892       C  0.42375652  0.30571867  0.32292295    -0.20720
C1893       C  0.39194325  0.31265157  0.31249920    -0.07230
C1894       C  0.37940627  0.29895094  0.28307793     0.13630
C1895       C  0.34424633  0.30372351  0.27249238    -0.24070
H1896       H  0.39083991  0.26881396  0.24115704     0.14920
H1897       H  0.43268027  0.31596003  0.34583800     0.14940
C1898       C  0.47800941  0.27804928  0.31578263    -0.24010
H1899       H  0.33903212  0.29163328  0.24859759     0.05160
H1900       H  0.33825651  0.32996142  0.26999512     0.08380
H1901       H  0.32778022  0.29293813  0.29102421     0.08380
H1902       H  0.49595210  0.28732906  0.29761778     0.08370
H1903       H  0.48099654  0.25119486  0.31869940     0.08370
H1904       H  0.48337991  0.28986524  0.33978356     0.05140
C1905       C  0.58329222  0.29888787  0.25199761    -0.20660
C1906       C  0.56539654  0.27536379  0.26954585    -0.07230
C1907       C  0.56791302  0.27471395  0.30430507     0.13640
C1908       C  0.58465564  0.29994860  0.32002058    -0.20720
C1909       C  0.60539758  0.32105629  0.30257339    -0.07230
C1910       C  0.60420204  0.32088479  0.26776586     0.13630
C1911       C  0.62528255  0.34235330  0.24642812    -0.24070
H1912       H  0.58171153  0.29963237  0.22544481     0.14920
H1913       H  0.58519223  0.30019562  0.34666664     0.14940
C1914       C  0.55686364  0.24694536  0.32620173    -0.24010
H1915       H  0.62278652  0.33620089  0.21995400     0.05160
H1916       H  0.65131968  0.33889449  0.25286503     0.08380
H1917       H  0.61788500  0.36831315  0.24903541     0.08380
H1918       H  0.54989860  0.22428571  0.31325887     0.08370
H1919       H  0.57767770  0.23952261  0.34221364     0.08370
H1920       H  0.53662621  0.25519503  0.34236674     0.05140
C1921       C  0.91118399  0.75476412  0.56404148    -0.20660
C1922       C  0.88126355  0.76824185  0.57454957    -0.07230
C1923       C  0.87315905  0.76643995  0.60822660     0.13640
C1924       C  0.89521852  0.75164840  0.63051266    -0.20720
C1925       C  0.92477818  0.73723232  0.61987075    -0.07230
C1926       C  0.93286090  0.73912854  0.58609817     0.13630
C1927       C  0.96477560  0.72554223  0.57329113    -0.24070
H1928       H  0.91728505  0.75580402  0.53822598     0.14920
H1929       H  0.88926897  0.75116004  0.65643124     0.14940
C1930       C  0.84122842  0.78028803  0.62062335    -0.24010
H1931       H  0.96753249  0.72973733  0.54649813     0.05160
H1932       H  0.96580446  0.69874496  0.57759746     0.08380
H1933       H  0.98571435  0.73753886  0.58595938     0.08380
H1934       H  0.82030317  0.76741225  0.60883996     0.08370
H1935       H  0.83982176  0.80677108  0.61468029     0.08370
H1936       H  0.83885067  0.77750838  0.64764067     0.05140
C1937       C  0.72988702  0.88439164  0.57878285    -0.20660
C1938       C  0.76299290  0.88631396  0.56819896    -0.07230
C1939       C  0.78246145  0.91178526  0.58140072     0.13640
C1940       C  0.76855077  0.93414654  0.60404470    -0.20720
C1941       C  0.73541932  0.93227904  0.61459787    -0.07230
C1942       C  0.71598073  0.90672201  0.60147340     0.13630
C1943       C  0.68073706  0.90223302  0.61158197    -0.24070
H1944       H  0.71445801  0.86495778  0.56930033     0.14920
H1945       H  0.78403451  0.95352627  0.61353979     0.14940
C1946       C  0.81775374  0.91613111  0.57140922    -0.24010
H1947       H  0.66947129  0.88048092  0.59967697     0.05160
H1948       H  0.66612178  0.92398419  0.60429879     0.08380
H1949       H  0.67927725  0.89876015  0.63856899     0.08380
H1950       H  0.81931629  0.91958472  0.54442206     0.08370
H1951       H  0.83225031  0.89431737  0.57874617     0.08370
H1952       H  0.82906981  0.93783388  0.58335742     0.05140
C1953       C  0.77190725  0.91169924  0.42673938    -0.20660
C1954       C  0.76199537  0.87890311  0.42342622    -0.07230
C1955       C  0.73850405  0.87114965  0.39852658     0.13640
C1956       C  0.72519514  0.89623126  0.37874764    -0.20720
C1957       C  0.73460526  0.92891020  0.38280123    -0.07230
C1958       C  0.75873905  0.93658818  0.40666835     0.13630
C1959       C  0.77055931  0.97126895  0.41105172    -0.24070
H1960       H  0.78952127  0.91808763  0.44565178     0.14920
H1961       H  0.70782365  0.89021567  0.35947187     0.14940
C1962       C  0.72793366  0.83640152  0.39163989    -0.24010
H1963       H  0.78877088  0.97336365  0.43126643     0.05160
H1964       H  0.74946672  0.98740915  0.41690976     0.08380
H1965       H  0.78237734  0.97994706  0.38813489     0.08380
H1966       H  0.71302970  0.82680260  0.41223244     0.08370
H1967       H  0.74984267  0.82068042  0.38780258     0.08370
H1968       H  0.71248752  0.83472083  0.36919539     0.05140
C1969       C  0.89139790  0.78076075  0.40178061    -0.20660
C1970       C  0.88695558  0.76360833  0.43127878    -0.07230
C1971       C  0.90514054  0.73392521  0.43568724     0.13640
C1972       C  0.92669364  0.72268884  0.41097866    -0.20720
C1973       C  0.93118465  0.73991399  0.38169224    -0.07230
C1974       C  0.91293826  0.76933478  0.37702247     0.13630
C1975       C  0.91496845  0.78830021  0.34536263    -0.24070
H1976       H  0.87734253  0.80291951  0.39770285     0.14920
H1977       H  0.94078955  0.70051568  0.41489421     0.14940
C1978       C  0.90301215  0.71397422  0.46675530    -0.24010
H1979       H  0.89717495  0.80890328  0.34478531     0.05160
H1980       H  0.90930610  0.77187661  0.32436216     0.08380
H1981       H  0.93980121  0.79891417  0.34232066     0.08380
H1982       H  0.87842549  0.70257740  0.46893551     0.08370
H1983       H  0.90797688  0.72979844  0.48830353     0.08370
H1984       H  0.92124381  0.69374764  0.46713524     0.05140
C1985       C  0.67821000  0.68882467  0.42915793    -0.20660
C1986       C  0.69299605  0.67206974  0.40296077    -0.07230
C1987       C  0.72775582  0.67402449  0.39946507     0.13640
C1988       C  0.74510844  0.69680514  0.41827619    -0.20720
C1989       C  0.72928006  0.71714812  0.44085932    -0.07230
C1990       C  0.69550455  0.71197835  0.44760531     0.13630
C1991       C  0.67697150  0.73081367  0.47358625    -0.24070
H1992       H  0.65215995  0.68570736  0.43348198     0.14920
H1993       H  0.77131422  0.69936371  0.41460511     0.14940
C1994       C  0.74757606  0.65309237  0.37624345    -0.24010
H1995       H  0.65139191  0.72188996  0.47638733     0.05160
H1996       H  0.67549447  0.75707639  0.46682897     0.08380
H1997       H  0.68928939  0.72807500  0.49768149     0.08380
H1998       H  0.73931337  0.65651375  0.35071232     0.08370
H1999       H  0.74589071  0.62703523  0.38363382     0.08370
H2000       H  0.77408246  0.65937864  0.37675355     0.05140
C2001       C  0.67882389  0.72430384  0.60325451    -0.20660
C2002       C  0.67524717  0.69118222  0.59483604    -0.07230
C2003       C  0.69360548  0.67832783  0.56849857     0.13640
C2004       C  0.71681474  0.69829544  0.55332921    -0.20720
C2005       C  0.72111777  0.73119844  0.56287650    -0.07230
C2006       C  0.70114946  0.74464414  0.58761154     0.13630
C2007       C  0.70388185  0.77980907  0.59890998    -0.24070
H2008       H  0.66548504  0.73416480  0.62322837     0.14920
H2009       H  0.73103040  0.68820236  0.53322960     0.14940
C2010       C  0.68914797  0.64398655  0.55562659    -0.24010
H2011       H  0.68791657  0.78497371  0.62038518     0.05160
H2012       H  0.69603410  0.79661001  0.57899803     0.08380
H2013       H  0.72955768  0.78525833  0.60625092     0.08380
H2014       H  0.66860906  0.63092799  0.56766578     0.08370
H2015       H  0.71209934  0.62979043  0.55937733     0.08370
H2016       H  0.68356787  0.64487912  0.52894181     0.05140
C2017       C  0.74199719  0.09033219  0.44379298    -0.20660
C2018       C  0.76388805  0.11490475  0.43336713    -0.07230
C2019       C  0.76974061  0.11822352  0.39935816     0.13640
C2020       C  0.75448525  0.09645563  0.37700644    -0.20720
C2021       C  0.73259345  0.07183877  0.38748946    -0.07230
C2022       C  0.72657361  0.06872908  0.42155550     0.13630
C2023       C  0.70485664  0.04243630  0.43561226    -0.24070
H2024       H  0.73668713  0.08805172  0.46977496     0.14920
H2025       H  0.75969834  0.09864700  0.35100827     0.14940
C2026       C  0.79095560  0.14548104  0.38650282    -0.24010
H2027       H  0.68415368  0.05396317  0.44903606     0.05160
H2028       H  0.71922336  0.02728858  0.45311330     0.08380
H2029       H  0.69449424  0.02587104  0.41672708     0.08380
H2030       H  0.81620273  0.14304673  0.39645513     0.08370
H2031       H  0.78059475  0.16949592  0.39407865     0.08370
H2032       H  0.79243977  0.14507897  0.35927180     0.05140
C2033       C  0.71693031  0.10248764  0.61587561    -0.20660
C2034       C  0.73429943  0.07329097  0.61961244    -0.07230
C2035       C  0.76367651  0.06877940  0.60142486     0.13640
C2036       C  0.77485041  0.09353384  0.58009884    -0.20720
C2037       C  0.75769749  0.12312953  0.57624368    -0.07230
C2038       C  0.72807724  0.12750110  0.59482098     0.13630
C2039       C  0.70773735  0.15841461  0.59345091    -0.24070
H2040       H  0.69480738  0.10603568  0.63019517     0.14920
H2041       H  0.79698960  0.08943483  0.56598678     0.14940
C2042       C  0.78298652  0.03732784  0.60368084    -0.24010
H2043       H  0.68709468  0.15795929  0.61122226     0.05160
H2044       H  0.69667391  0.16131974  0.56870268     0.08380
H2045       H  0.72318839  0.17993574  0.59966710     0.08380
H2046       H  0.76688502  0.01627507  0.59751074     0.08370
H2047       H  0.79300808  0.03417209  0.62881382     0.08370
H2048       H  0.80405714  0.03705403  0.58642002     0.05140
C2049       C  0.90884925  0.25552377  0.56050680    -0.20660
C2050       C  0.88188198  0.23746871  0.57221692    -0.07230
C2051       C  0.87670511  0.23587620  0.60644994     0.13640
C2052       C  0.89873686  0.25184901  0.62798857    -0.20720
C2053       C  0.92573587  0.26992527  0.61625884    -0.07230
C2054       C  0.93105248  0.27117112  0.58203380     0.13630
C2055       C  0.96099053  0.28767253  0.56830313    -0.24070
H2056       H  0.91261589  0.25728005  0.53423224     0.14920
H2057       H  0.89518214  0.24980357  0.65427375     0.14940
C2058       C  0.84759289  0.21792523  0.62020345    -0.24010
H2059       H  0.96170339  0.28631080  0.54106903     0.05160
H2060       H  0.98328396  0.27538959  0.57799152     0.08380
H2061       H  0.96123179  0.31385189  0.57562854     0.08380
H2062       H  0.84879772  0.19173704  0.61299125     0.08370
H2063       H  0.82459526  0.22876852  0.61045167     0.08370
H2064       H  0.84683767  0.21933774  0.64743712     0.05140
C2065       C  0.89116046  0.21857692  0.40729352    -0.20660
C2066       C  0.88035635  0.24006227  0.43171087    -0.07230
C2067       C  0.89323062  0.27247685  0.43202446     0.13640
C2068       C  0.91551986  0.28256877  0.40753281    -0.20720
C2069       C  0.92576159  0.26145708  0.38227435    -0.07230
C2070       C  0.91339048  0.22853649  0.38267675     0.13630
C2071       C  0.92319489  0.20302569  0.35764996    -0.24070
H2072       H  0.88151364  0.19385316  0.40707978     0.14920
H2073       H  0.92503720  0.30731703  0.40824164     0.14940
C2074       C  0.88448835  0.29654453  0.45878922    -0.24010
H2075       H  0.91122571  0.17904823  0.36222760     0.05160
H2076       H  0.95009753  0.19883083  0.35870412     0.08380
H2077       H  0.91566962  0.21093111  0.33268611     0.08380
H2078       H  0.88965031  0.28562133  0.48319493     0.08370
H2079       H  0.85821335  0.30341289  0.45709181     0.08370
H2080       H  0.89894556  0.31949773  0.45687190     0.05140
C2081       C  0.69063466  0.28184280  0.55624253    -0.20660
C2082       C  0.72328742  0.27651871  0.56609236    -0.07230
C2083       C  0.73519970  0.29169358  0.59491515     0.13640
C2084       C  0.71441964  0.31276305  0.61213733    -0.20720
C2085       C  0.68247177  0.31939184  0.60094216    -0.07230
C2086       C  0.67051563  0.30416264  0.57241612     0.13630
C2087       C  0.63712321  0.31207837  0.55839525    -0.24070
H2088       H  0.68069458  0.26873794  0.53552879     0.14920
H2089       H  0.72283234  0.32350129  0.63500933     0.14940
C2090       C  0.76872518  0.28438381  0.60885742    -0.24010
H2091       H  0.63284083  0.29933560  0.53465532     0.05160
H2092       H  0.63526108  0.33881992  0.55393662     0.08380
H2093       H  0.61735609  0.30450745  0.57536847     0.08380
H2094       H  0.78814603  0.29357027  0.59222989     0.08370
H2095       H  0.77146946  0.25757357  0.61233988     0.08370
H2096       H  0.77250006  0.29633390  0.63309542     0.05140
C2097       C  0.73733743  0.26659000  0.39664054    -0.20660
C2098       C  0.72620999  0.26660595  0.42905511    -0.07230
C2099       C  0.69848078  0.28494848  0.43834117     0.13640
C2100       C  0.68230533  0.30346671  0.41488624    -0.20720
C2101       C  0.69382993  0.30417468  0.38278939    -0.07230
C2102       C  0.72134124  0.28560668  0.37311438     0.13630
C2103       C  0.73381111  0.28622916  0.33832825    -0.24070
H2104       H  0.75886408  0.25242771  0.39004965     0.14920
H2105       H  0.66106741  0.31801118  0.42165421     0.14940
C2106       C  0.68616693  0.28517513  0.47297514    -0.24010
H2107       H  0.75527967  0.26979424  0.33501644     0.05160
H2108       H  0.74149493  0.31144603  0.33183180     0.08380
H2109       H  0.71412517  0.27813972  0.32127552     0.08380
H2110       H  0.70560608  0.29497469  0.48936934     0.08370
H2111       H  0.67973979  0.25978051  0.48011437     0.08370
H2112       H  0.66397999  0.30071737  0.47592799     0.05140
C2113       C  0.13009758  0.75462957  0.39366978    -0.20660
C2114       C  0.11912544  0.76550896  0.42452926    -0.07230
C2115       C  0.08588125  0.76042869  0.43318240     0.13640
C2116       C  0.06446289  0.74514675  0.41063651    -0.20720
C2117       C  0.07538795  0.73487579  0.37958377    -0.07230
C2118       C  0.10858770  0.73993434  0.37095900     0.13630
C2119       C  0.12145680  0.72946307  0.33787632    -0.24070
H2120       H  0.15575680  0.75757771  0.38735819     0.14920
H2121       H  0.03880566  0.74207094  0.41689191     0.14940
C2122       C  0.07314888  0.77016600  0.46651396    -0.24010
H2123       H  0.14819732  0.73413670  0.33554940     0.05160
H2124       H  0.10880259  0.74318890  0.31806373     0.08380
H2125       H  0.11719597  0.70284305  0.33436003     0.08380
H2126       H  0.07579819  0.79698723  0.46997665     0.08370
H2127       H  0.08715462  0.75718727  0.48593552     0.08370
H2128       H  0.04680069  0.76390699  0.46944908     0.05140
C2129       C  0.24793903  0.87178398  0.60381828    -0.20660
C2130       C  0.23446884  0.88196989  0.57364635    -0.07230
C2131       C  0.23692113  0.91544913  0.56499322     0.13640
C2132       C  0.25207505  0.93774405  0.58680504    -0.20720
C2133       C  0.26516109  0.92753251  0.61705502    -0.07230
C2134       C  0.26265884  0.89417294  0.62575954     0.13630
C2135       C  0.27551031  0.88224675  0.65831680    -0.24070
H2136       H  0.24694909  0.84606223  0.61024448     0.14920
H2137       H  0.25305419  0.96349183  0.58053279     0.14940
C2138       C  0.22458239  0.92759242  0.53231285    -0.24010
H2139       H  0.27212751  0.85542932  0.66119200     0.05160
H2140       H  0.26230251  0.89466156  0.67866250     0.08380
H2141       H  0.30212409  0.88772035  0.66031063     0.08380
H2142       H  0.19775444  0.92338092  0.53034020     0.08370
H2143       H  0.23730739  0.91444865  0.51211140     0.08370
H2144       H  0.22911078  0.95420948  0.52916537     0.05140
C2145       C  0.09781503  0.73165690  0.56076046    -0.20660
C2146       C  0.11215902  0.76288465  0.56597994    -0.07230
C2147       C  0.10371958  0.77982315  0.59510937     0.13640
C2148       C  0.08165375  0.76542449  0.61755334    -0.20720
C2149       C  0.06731599  0.73430770  0.61225442    -0.07230
C2150       C  0.07575100  0.71728694  0.58328965     0.13630
C2151       C  0.06089529  0.68445760  0.57543143    -0.24070
H2152       H  0.10378591  0.71817651  0.53862901     0.14920
H2153       H  0.07550574  0.77881128  0.63970893     0.14940
C2154       C  0.11822125  0.81276429  0.60327221    -0.24010
H2155       H  0.06931958  0.67499965  0.55128539     0.05160
H2156       H  0.03374039  0.68654917  0.57459065     0.08380
H2157       H  0.06811270  0.66639425  0.59444474     0.08380
H2158       H  0.11085061  0.83092368  0.58440748     0.08370
H2159       H  0.14538948  0.81094414  0.60431497     0.08370
H2160       H  0.10961705  0.82199724  0.62744652     0.05140
C2161       C  0.26753758  0.89829575  0.43395236    -0.20660
C2162       C  0.23482358  0.88663647  0.43171698    -0.07230
C2163       C  0.21546689  0.89776040  0.40509885     0.13640
C2164       C  0.22904136  0.91981386  0.38218145    -0.20720
C2165       C  0.26165104  0.93154134  0.38456502    -0.07230
C2166       C  0.28111369  0.92024659  0.41093885     0.13630
C2167       C  0.31592193  0.93175312  0.41562576    -0.24070
H2168       H  0.28292242  0.89027915  0.45410837     0.14920
H2169       H  0.21377034  0.92801125  0.36199705     0.14940
C2170       C  0.18065517  0.88634230  0.40015516    -0.24010
H2171       H  0.32723799  0.92125853  0.43809658     0.05160
H2172       H  0.31642291  0.95882858  0.41799658     0.08380
H2173       H  0.33110567  0.92405640  0.39436523     0.08380
H2174       H  0.16534714  0.89398016  0.42134856     0.08370
H2175       H  0.18010942  0.85928630  0.39755985     0.08370
H2176       H  0.16947531  0.89696801  0.37767856     0.05140
C2177       C  0.29696876  0.67516769  0.57677496    -0.20660
C2178       C  0.31269988  0.69077395  0.60317245    -0.07230
C2179       C  0.30455758  0.72363389  0.61124726     0.13640
C2180       C  0.28176060  0.74008383  0.59192560    -0.20720
C2181       C  0.26604311  0.72430528  0.56597102    -0.07230
C2182       C  0.27322967  0.69147339  0.55829026     0.13630
C2183       C  0.25637682  0.67386822  0.53041847    -0.24070
H2184       H  0.30270945  0.64982486  0.57123604     0.14920
H2185       H  0.27603983  0.76554210  0.59703014     0.14940
C2186       C  0.31793203  0.74129739  0.64098217    -0.24010
H2187       H  0.26534422  0.64831812  0.52775214     0.05160
H2188       H  0.26099792  0.68679090  0.50698145     0.08380
H2189       H  0.22954952  0.67297934  0.53499909     0.08380
H2190       H  0.34449419  0.74621859  0.63825397     0.08370
H2191       H  0.31322733  0.72658172  0.66324076     0.08370
H2192       H  0.30591537  0.76544093  0.64468686     0.05140
C2193       C  0.29278586  0.70633657  0.38502217    -0.20660
C2194       C  0.31604110  0.68680896  0.40131646    -0.07230
C2195       C  0.32149569  0.69057424  0.43515854     0.13640
C2196       C  0.30259324  0.71344899  0.45236784    -0.20720
C2197       C  0.27872880  0.73221846  0.43611000    -0.07230
C2198       C  0.27372988  0.72889505  0.40219721     0.13630
C2199       C  0.24794745  0.74858129  0.38444992    -0.24070
H2200       H  0.28952942  0.70376948  0.35873689     0.14920
H2201       H  0.30586519  0.71622591  0.47865503     0.14940
C2202       C  0.34663357  0.67019266  0.45291171    -0.24010
H2203       H  0.24735124  0.74280578  0.35778918     0.05160
H2204       H  0.25316821  0.77510098  0.38735473     0.08380
H2205       H  0.22336054  0.74316426  0.39481239     0.08380
H2206       H  0.37133739  0.67481383  0.44246629     0.08370
H2207       H  0.34056850  0.64384238  0.45009710     0.08370
H2208       H  0.34740002  0.67605264  0.47955146     0.05140
loop_ 
_geom_bond_atom_site_label_1 
_geom_bond_atom_site_label_2 
_geom_bond_distance 
_geom_bond_site_symmetry_2 
_ccdc_geom_bond_type 
Fe1          O17   2.044       .  S
Fe1           O7   2.051       .  S
Fe1          O14   2.041       .  S
Fe1           O6   2.043       .  S
Fe1          O12   1.951       .  S
Fe2           O5   2.036       .  S
Fe2           O9   2.048       .  S
Fe2          O13   2.036       .  S
Fe2          O18   2.058       .  S
Fe2          O12   1.956       .  S
Fe3          O21   2.130       .  S
Fe3           O8   2.123       .  S
Fe3          O15   2.122       .  S
Fe3           O4   2.134       .  S
Fe3          O12   1.948       .  S
O4           C11   1.284       .  A
O5           C19   1.265       .  A
O6           C11   1.265       .  A
O7           C10   1.266       .  A
O8           C20   1.283       .  A
O9           C22   1.263       .  A
C10          O15   1.283       .  A
C10        C2162   1.513       .  S
C11        C2130   1.495       .  S
O13          C16   1.265       .  A
O14          C16   1.265       .  A
C16        C2181   1.444       .  S
O17          C22   1.264       .  A
O18          C20   1.267       .  A
C19          O21   1.283       .  A
C19        C2114   1.487       .  S
C20        C2146   1.514       .  S
C22        C2197   1.447       .  S
Fe23         O39   2.032       .  S
Fe23         O29   2.045       .  S
Fe23         O36   2.052       .  S
Fe23         O28   2.023       .  S
Fe23         O34   1.951       .  S
Fe24         O27   2.037       .  S
Fe24         O31   2.059       .  S
Fe24         O35   2.044       .  S
Fe24         O40   2.047       .  S
Fe24         O34   1.951       .  S
Fe25         O43   2.147       .  S
Fe25         O30   2.124       .  S
Fe25         O37   2.128       .  S
Fe25         O26   2.156       .  S
Fe25         O34   1.941       .  S
O26          C33   1.292       .  A
O27          C41   1.266       .  A
O28          C33   1.263       .  A
O29          C32   1.260       .  A
O30          C42   1.282       .  A
O31          C44   1.267       .  A
C32          O37   1.280       .  A
C32        C2018   1.497       .  S
C33        C2037   1.512       .  S
O35          C38   1.263       .  A
O36          C38   1.265       .  A
C38        C2082   1.469       .  S
O39          C44   1.263       .  A
O40          C42   1.263       .  A
C41          O43   1.289       .  A
C41        C2066   1.502       .  S
C42        C2050   1.492       .  S
C44        C2098   1.442       .  S
Fe45         O61   2.043       .  S
Fe45         O51   2.047       .  S
Fe45         O58   2.044       .  S
Fe45         O50   2.044       .  S
Fe45         O56   1.959       .  S
Fe46         O49   2.037       .  S
Fe46         O53   2.051       .  S
Fe46         O57   2.032       .  S
Fe46         O62   2.050       .  S
Fe46         O56   1.956       .  S
Fe47         O65   2.141       .  S
Fe47         O52   2.134       .  S
Fe47         O59   2.137       .  S
Fe47         O48   2.136       .  S
Fe47         O56   1.954       .  S
O48          C55   1.285       .  A
O49          C63   1.265       .  A
O50          C55   1.266       .  A
O51          C54   1.262       .  A
O52          C64   1.283       .  A
O53          C66   1.263       .  A
C54          O59   1.285       .  A
C54        C1970   1.513       .  S
C55        C1922   1.490       .  S
O57          C60   1.263       .  A
O58          C60   1.264       .  A
C60        C2005   1.463       .  S
O61          C66   1.268       .  A
O62          C64   1.264       .  A
C63          O65   1.287       .  A
C63        C1954   1.504       .  S
C64        C1938   1.518       .  S
C66        C1989   1.474       .  S
Fe67         O83   2.032       .  S
Fe67         O73   2.044       .  S
Fe67         O80   2.060       .  S
Fe67         O72   2.038       .  S
Fe67         O78   1.952       .  S
Fe68         O71   2.032       .  S
Fe68         O75   2.052       .  S
Fe68         O79   2.033       .  S
Fe68         O84   2.042       .  S
Fe68         O78   1.956       .  S
Fe69         O87   2.146       .  S
Fe69         O74   2.131       .  S
Fe69         O81   2.132       .  S
Fe69         O70   2.139       .  S
Fe69         O78   1.947       .  S
O70          C77   1.289       .  A
O71          C85   1.265       .  A
O72          C77   1.270       .  A
O73          C76   1.260       .  A
O74          C86   1.281       .  A
O75          C88   1.261       .  A
C76          O81   1.281       .  A
C76        C1874   1.498       .  S
C77        C1826   1.510       .  S
O79          C82   1.262       .  A
O80          C82   1.265       .  A
C82        C1890   1.446       .  S
O83          C88   1.264       .  A
O84          C86   1.262       .  A
C85          O87   1.291       .  A
C85        C1858   1.507       .  S
C86        C1842   1.508       .  S
C88        C1906   1.473       .  S
Fe89        O105   2.032       .  S
Fe89         O95   2.071       .  S
Fe89        O102   2.049       .  S
Fe89         O94   2.034       .  S
Fe89        O100   1.934       .  S
Fe90         O93   2.019       .  S
Fe90         O97   2.066       .  S
Fe90        O101   2.014       .  S
Fe90        O106   2.084       .  S
Fe90        O100   1.941       .  S
Fe91        O109   2.142       .  S
Fe91         O96   2.116       .  S
Fe91        O103   2.118       .  S
Fe91         O92   2.142       .  S
Fe91        O100   1.934       .  S
O92          C99   1.283       .  A
O93         C107   1.257       .  A
O94          C99   1.260       .  A
O95          C98   1.269       .  A
O96         C108   1.284       .  A
O97         C110   1.268       .  A
C98         O103   1.286       .  A
C98        C1746   1.517       .  S
C99        C1730   1.493       .  S
O101        C104   1.259       .  A
O102        C104   1.268       .  A
C104       C1794   1.431       .  S
O105        C110   1.261       .  A
O106        C108   1.273       .  A
C107        O109   1.283       .  A
C107       C1762   1.492       .  S
C108       C1778   1.515       .  S
C110       C1810   1.447       .  S
Fe111       O127   2.041       .  S
Fe111       O117   2.045       .  S
Fe111       O124   2.045       .  S
Fe111       O116   2.038       .  S
Fe111       O122   1.966       .  S
Fe112       O115   2.048       .  S
Fe112       O119   2.054       .  S
Fe112       O123   2.049       .  S
Fe112       O128   2.050       .  S
Fe112       O122   1.973       .  S
Fe113       O131   2.127       .  S
Fe113       O118   2.129       .  S
Fe113       O125   2.130       .  S
Fe113       O114   2.127       .  S
Fe113       O122   1.970       .  S
O114        C121   1.284       .  A
O115        C129   1.267       .  A
O116        C121   1.263       .  A
O117        C120   1.262       .  A
O118        C130   1.282       .  A
O119        C132   1.266       .  A
C120        O125   1.282       .  A
C120       C1634   1.505       .  S
C121       C1650   1.505       .  S
O123        C126   1.265       .  A
O124        C126   1.263       .  A
C126       C1698   1.475       .  S
O127        C132   1.265       .  A
O128        C130   1.263       .  A
C129        O131   1.282       .  A
C129       C1682   1.490       .  S
C130       C1666   1.496       .  S
C132       C1714   1.460       .  S
Fe133       O149   2.054       .  S
Fe133       O139   2.035       .  S
Fe133       O146   2.043       .  S
Fe133       O138   2.051       .  S
Fe133       O144   1.965       .  S
Fe134       O137   2.048       .  S
Fe134       O141   2.043       .  S
Fe134       O145   2.037       .  S
Fe134       O150   2.039       .  S
Fe134       O144   1.961       .  S
Fe135       O153   2.123       .  S
Fe135       O140   2.150       .  S
Fe135       O147   2.141       .  S
Fe135       O136   2.123       .  S
Fe135       O144   1.954       .  S
O136        C143   1.281       .  A
O137        C151   1.261       .  A
O138        C143   1.264       .  A
O139        C142   1.264       .  A
O140        C152   1.290       .  A
O141        C154   1.266       .  A
C142        O147   1.287       .  A
C142       C1586   1.497       .  S
C143       C1541   1.492       .  S
O145        C148   1.263       .  A
O146        C148   1.263       .  A
C148       C1621   1.464       .  S
O149        C154   1.266       .  A
O150        C152   1.266       .  A
C151        O153   1.280       .  A
C151       C1570   1.493       .  S
C152       C1554   1.507       .  S
C154       C1605   1.451       .  S
Fe155       O171   2.037       .  S
Fe155       O161   2.051       .  S
Fe155       O168   2.056       .  S
Fe155       O160   2.035       .  S
Fe155       O166   1.961       .  S
Fe156       O159   2.034       .  S
Fe156       O163   2.040       .  S
Fe156       O167   2.035       .  S
Fe156       O172   2.039       .  S
Fe156       O166   1.955       .  S
Fe157       O175   2.132       .  S
Fe157       O162   2.129       .  S
Fe157       O169   2.126       .  S
Fe157       O158   2.131       .  S
Fe157       O166   1.956       .  S
O158        C165   1.284       .  A
O159        C173   1.265       .  A
O160        C165   1.265       .  A
O161        C164   1.264       .  A
O162        C174   1.282       .  A
O163        C176   1.261       .  A
C164        O169   1.282       .  A
C164       C1474   1.495       .  S
C165       C1490   1.486       .  S
O167        C170   1.263       .  A
O168        C170   1.268       .  A
C170       C1509   1.475       .  S
O171        C176   1.261       .  A
O172        C174   1.258       .  A
C173        O175   1.285       .  A
C173       C1461   1.481       .  S
C174       C1442   1.517       .  S
C176       C1522   1.442       .  S
Fe177       O193   2.030       .  S
Fe177       O183   2.049       .  S
Fe177       O190   2.042       .  S
Fe177       O182   2.033       .  S
Fe177       O188   1.971       .  S
Fe178       O181   2.038       .  S
Fe178       O185   2.043       .  S
Fe178       O189   2.027       .  S
Fe178       O194   2.063       .  S
Fe178       O188   1.964       .  S
Fe179       O197   2.136       .  S
Fe179       O184   2.128       .  S
Fe179       O191   2.131       .  S
Fe179       O180   2.132       .  S
Fe179       O188   1.962       .  S
O180        C187   1.282       .  A
O181        C195   1.262       .  A
O182        C187   1.262       .  A
O183        C186   1.264       .  A
O184        C196   1.284       .  A
O185        C198   1.266       .  A
C186        O191   1.285       .  A
C186       C1346   1.502       .  S
C187       C1378   1.486       .  S
O189        C192   1.260       .  A
O190        C192   1.264       .  A
C192       C1413   1.440       .  S
O193        C198   1.260       .  A
O194        C196   1.267       .  A
C195        O197   1.283       .  A
C195       C1362   1.495       .  S
C196       C1394   1.502       .  S
C198       C1426   1.449       .  S
Fe199       O215   2.036       .  S
Fe199       O205   2.062       .  S
Fe199       O212   2.055       .  S
Fe199       O204   2.036       .  S
Fe199       O210   1.965       .  S
Fe200       O203   2.039       .  S
Fe200       O207   2.047       .  S
Fe200       O211   2.041       .  S
Fe200       O216   2.048       .  S
Fe200       O210   1.971       .  S
Fe201       O219   2.130       .  S
Fe201       O206   2.138       .  S
Fe201       O213   2.129       .  S
Fe201       O202   2.142       .  S
Fe201       O210   1.965       .  S
O202        C209   1.286       .  A
O203        C217   1.263       .  A
O204        C209   1.263       .  A
O205        C208   1.266       .  A
O206        C218   1.287       .  A
O207        C220   1.266       .  A
C208        O213   1.283       .  A
C208       C1298   1.506       .  S
C209       C1250   1.515       .  S
O211        C214   1.262       .  A
O212        C214   1.265       .  A
C214       C1314   1.461       .  S
O215        C220   1.265       .  A
O216        C218   1.264       .  A
C217        O219   1.282       .  A
C217       C1285   1.488       .  S
C218       C1266   1.508       .  S
C220       C1330   1.451       .  S
Fe221       O237   2.034       .  S
Fe221       O227   2.049       .  S
Fe221       O234   2.045       .  S
Fe221       O226   2.028       .  S
Fe221       O232   1.954       .  S
Fe222       O225   2.035       .  S
Fe222       O229   2.043       .  S
Fe222       O233   2.038       .  S
Fe222       O238   2.047       .  S
Fe222       O232   1.954       .  S
Fe223       O241   2.137       .  S
Fe223       O228   2.130       .  S
Fe223       O235   2.128       .  S
Fe223       O224   2.140       .  S
Fe223       O232   1.951       .  S
O224        C231   1.285       .  A
O225        C239   1.265       .  A
O226        C231   1.261       .  A
O227        C230   1.264       .  A
O228        C240   1.285       .  A
O229        C242   1.263       .  A
C230        O235   1.285       .  A
C230       C1186   1.504       .  S
C231       C1154   1.498       .  S
O233        C236   1.264       .  A
O234        C236   1.264       .  A
C236       C1234   1.447       .  S
O237        C242   1.261       .  A
O238        C240   1.263       .  A
C239        O241   1.284       .  A
C239       C1173   1.502       .  S
C240       C1205   1.508       .  S
C242       C1218   1.441       .  S
Fe243       O259   2.045       .  S
Fe243       O249   2.050       .  S
Fe243       O256   2.057       .  S
Fe243       O248   2.040       .  S
Fe243       O254   1.966       .  S
Fe244       O247   2.040       .  S
Fe244       O251   2.049       .  S
Fe244       O255   2.029       .  S
Fe244       O260   2.046       .  S
Fe244       O254   1.957       .  S
Fe245       O263   2.137       .  S
Fe245       O250   2.134       .  S
Fe245       O257   2.129       .  S
Fe245       O246   2.135       .  S
Fe245       O254   1.950       .  S
O246        C253   1.286       .  A
O247        C261   1.267       .  A
O248        C253   1.268       .  A
O249        C252   1.263       .  A
O250        C262   1.282       .  A
O251        C264   1.268       .  A
C252        O257   1.282       .  A
C252       C1109   1.498       .  S
C253       C1058   1.504       .  S
O255        C258   1.260       .  A
O256        C258   1.265       .  A
C258       C1141   1.445       .  S
O259        C264   1.264       .  A
O260        C262   1.261       .  A
C261        O263   1.286       .  A
C261       C1093   1.490       .  S
C262       C1074   1.499       .  S
C264       C1125   1.474       .  S
C265       C1237   1.462       .  S
C265        C266   1.395       .  A
C265        C270   1.383       .  A
C266        C267   1.417       .  A
C266        H271   1.077       .  S
C267       C1122   1.512       .  S
C267        C268   1.409       .  A
C268        C269   1.400       .  A
C268        H272   1.071       .  S
C269       C1506   1.466       .  S
C269        C270   1.386       .  A
C270        H273   1.085       .  S
C274       C1893   1.452       .  S
C274        C275   1.395       .  A
C274        C279   1.386       .  A
C275        C276   1.404       .  A
C275        H280   1.073       .  S
C276       C1618   1.499       .  S
C276        C277   1.414       .  A
C277        C278   1.392       .  A
C277        H281   1.082       .  S
C278       C1138   1.452       .  S
C278        C279   1.384       .  A
C279        H282   1.085       .  S
C283       C1221   1.453       .  S
C283        C284   1.389       .  A
C283        C288   1.393       .  A
C284        C285   1.394       .  A
C284        H289   1.085       .  S
C285       C2085   1.461       .  S
C285        C286   1.395       .  A
C286        C287   1.399       .  A
C286        H290   1.085       .  S
C287       C1333   1.465       .  S
C287        C288   1.398       .  A
C288        H291   1.084       .  S
C292       C1317   1.473       .  S
C292        C293   1.395       .  A
C292        C297   1.399       .  A
C293        C294   1.401       .  A
C293        H298   1.084       .  S
C294       C2002   1.475       .  S
C294        C295   1.404       .  A
C295        C296   1.399       .  A
C295        H299   1.083       .  S
C296       C1429   1.478       .  S
C296        C297   1.396       .  A
C297        H300   1.084       .  S
C301       C1410   1.461       .  S
C301        C302   1.396       .  A
C301        C306   1.391       .  A
C302        C303   1.397       .  A
C302        H307   1.082       .  S
C303       C2178   1.466       .  S
C303        C304   1.397       .  A
C304        C305   1.390       .  A
C304        H308   1.084       .  S
C305       C1525   1.455       .  S
C305        C306   1.392       .  A
C306        H309   1.085       .  S
C310       C1602   1.466       .  S
C310        C311   1.396       .  A
C310        C315   1.394       .  A
C311        C312   1.398       .  A
C311        H316   1.083       .  S
C312       C2194   1.459       .  S
C312        C313   1.395       .  A
C313        C314   1.398       .  A
C313        H317   1.085       .  S
C314       C1717   1.466       .  S
C314        C315   1.395       .  A
C315        H318   1.084       .  S
C319       C1813   1.453       .  S
C319        C320   1.394       .  A
C319        C324   1.383       .  A
C320        C321   1.399       .  A
C320        H325   1.078       .  S
C321       C1986   1.491       .  S
C321        C322   1.414       .  A
C322        C323   1.399       .  A
C322        H326   1.078       .  S
C323       C1701   1.475       .  S
C323        C324   1.396       .  A
C324        H327   1.085       .  S
C328       C1797   1.444       .  S
C328        C329   1.385       .  A
C328        C333   1.400       .  A
C329        C330   1.380       .  A
C329        H334   1.085       .  S
C330       C2101   1.441       .  S
C330        C331   1.385       .  A
C331        C332   1.405       .  A
C331        H335   1.084       .  S
C332       C1909   1.481       .  S
C332        C333   1.402       .  A
C333        H336   1.078       .  S
Fe337       O353   2.033   1_545  S
Fe337       O343   2.047   1_545  S
Fe337       O350   2.048       .  S
Fe337       O342   2.033       .  S
Fe337       O348   1.960       .  S
Fe338       O341   2.044       .  S
Fe338       O345   2.044       .  S
Fe338       O349   2.042   1_565  S
Fe338       O354   2.039   1_565  S
Fe338       O348   1.966   1_565  S
Fe339       O357   2.137   1_545  S
Fe339       O344   2.135       .  S
Fe339       O351   2.139   1_545  S
Fe339       O340   2.133       .  S
Fe339       O348   1.959       .  S
O340        C347   1.284       .  A
O341        C355   1.267       .  A
O342        C347   1.263       .  A
O343        C346   1.265       .  A
O344        C356   1.284       .  A
O345        C358   1.261       .  A
C346        O351   1.286       .  A
C346       C1941   1.519       .  S
C347       C2034   1.492       .  S
O349        C352   1.266       .  A
O350        C352   1.266       .  A
C352       C1026   1.454       .  S
O353        C358   1.263       .  A
O354        C356   1.259       .  A
C355        O357   1.285       .  A
C355       C1365   1.490       .  S
C356       C1189   1.511       .  S
C358       C1045   1.467       .  S
C359        C997   1.459       .  S
C359        C360   1.393       .  A
C359        C364   1.393       .  A
C360        C361   1.397       .  A
C360        H365   1.084       .  S
C361       C1029   1.468       .  S
C361        C362   1.400       .  A
C362        C363   1.397       .  A
C362        H366   1.085       .  S
C363       C1013   1.464       .  S
C363        C364   1.396       .  A
C364        H367   1.084       .  S
Fe368       O384   2.040       .  S
Fe368       O374   2.039       .  S
Fe368       O381   2.049   1_655  S
Fe368       O373   2.046   1_655  S
Fe368       O379   1.964       .  S
Fe369       O372   2.040       .  S
Fe369       O376   2.044       .  S
Fe369       O380   2.039   1_655  S
Fe369       O385   2.047   1_655  S
Fe369       O379   1.963       .  S
Fe370       O388   2.135       .  S
Fe370       O375   2.125   1_655  S
Fe370       O382   2.131       .  S
Fe370       O371   2.126   1_655  S
Fe370       O379   1.958       .  S
O371        C378   1.282       .  A
O372        C386   1.267       .  A
O373        C378   1.267       .  A
O374        C377   1.262       .  A
O375        C387   1.282       .  A
O376        C389   1.263       .  A
C377        O382   1.284       .  A
C377       C2053   1.492       .  S
C378       C1090   1.509       .  S
O380        C383   1.265       .  A
O381        C383   1.266       .  A
C383        C981   1.443       .  S
O384        C389   1.261       .  A
O385        C387   1.260       .  A
C386        O388   1.285       .  A
C386       C1282   1.500       .  S
C387       C1445   1.516       .  S
C389       C1010   1.464       .  S
Fe390       O406   2.041       .  S
Fe390       O396   2.042       .  S
Fe390       O403   2.051   1_545  S
Fe390       O395   2.042   1_545  S
Fe390       O401   1.962   1_545  S
Fe391       O394   2.032   1_565  S
Fe391       O398   2.052   1_565  S
Fe391       O402   2.036       .  S
Fe391       O407   2.050       .  S
Fe391       O401   1.954       .  S
Fe392       O410   2.144       .  S
Fe392       O397   2.130   1_545  S
Fe392       O404   2.129       .  S
Fe392       O393   2.138   1_545  S
Fe392       O401   1.954   1_545  S
O393        C400   1.287       .  A
O394        C408   1.264       .  A
O395        C400   1.268       .  A
O396        C399   1.261       .  A
O397        C409   1.281       .  A
O398        C411   1.264       .  A
C399        O404   1.281       .  A
C399       C1106   1.496       .  S
C400       C2133   1.488       .  S
O402        C405   1.266       .  A
O403        C405   1.263       .  A
C405        C965   1.478       .  S
O406        C411   1.265       .  A
O407        C409   1.262       .  A
C408        O410   1.290       .  A
C408       C1157   1.511       .  S
C409       C1397   1.501       .  S
C411        C949   1.462       .  S
C412        C978   1.453       .  S
C412        C413   1.395       .  A
C412        C417   1.393       .  A
C413        C414   1.393       .  A
C413        H418   1.084       .  S
C414        C946   1.457       .  S
C414        C415   1.395       .  A
C415        C416   1.394       .  A
C415        H419   1.085       .  S
C416        C930   1.460       .  S
C416        C417   1.394       .  A
C417        H420   1.084       .  S
Fe421       O437   2.044   1_655  S
Fe421       O427   2.047   1_655  S
Fe421       O434   2.047       .  S
Fe421       O426   2.048       .  S
Fe421       O432   1.949   1_655  S
Fe422       O425   2.032       .  S
Fe422       O429   2.044       .  S
Fe422       O433   2.035   1_455  S
Fe422       O438   2.058   1_455  S
Fe422       O432   1.953       .  S
Fe423       O441   2.135   1_655  S
Fe423       O428   2.137       .  S
Fe423       O435   2.131   1_655  S
Fe423       O424   2.133       .  S
Fe423       O432   1.945   1_655  S
O424        C431   1.284       .  A
O425        C439   1.264       .  A
O426        C431   1.266       .  A
O427        C430   1.265       .  A
O428        C440   1.286       .  A
O429        C442   1.264       .  A
C430        O435   1.285       .  A
C430       C2149   1.508       .  S
C431       C1925   1.496       .  S
O433        C436   1.264       .  A
O434        C436   1.266       .  A
C436        C914   1.446       .  S
O437        C442   1.263       .  A
O438        C440   1.264       .  A
C439        O441   1.284       .  A
C439       C1458   1.491       .  S
C440       C1269   1.517       .  S
C442        C898   1.454       .  S
C443        C962   1.490       .  S
C443        C444   1.407       .  A
C443        C448   1.403       .  A
C444        C445   1.391       .  A
C444        H449   1.083       .  S
C445        C901   1.460       .  S
C445        C446   1.390       .  A
C446        C447   1.390       .  A
C446        H450   1.085       .  S
C447        C882   1.459       .  S
C447        C448   1.401       .  A
C448        H451   1.077       .  S
Fe452       O468   2.037   1_554  S
Fe452       O458   2.065   1_554  S
Fe452       O465   2.059       .  S
Fe452       O457   2.040       .  S
Fe452       O463   1.957       .  S
Fe453       O456   2.034       .  S
Fe453       O460   2.050       .  S
Fe453       O464   2.033   1_556  S
Fe453       O469   2.054   1_556  S
Fe453       O463   1.951   1_556  S
Fe454       O472   2.142   1_554  S
Fe454       O459   2.130       .  S
Fe454       O466   2.123   1_554  S
Fe454       O455   2.150       .  S
Fe454       O463   1.946       .  S
O455        C462   1.288       .  A
O456        C470   1.265       .  A
O457        C462   1.265       .  A
O458        C461   1.267       .  A
O459        C471   1.285       .  A
O460        C473   1.265       .  A
C461        O466   1.282       .  A
C461       C1477   1.498       .  S
C462       C1573   1.506       .  S
O464        C467   1.262       .  A
O465        C467   1.266       .  A
C467        C869   1.445       .  S
O468        C473   1.264       .  A
O469        C471   1.264       .  A
C470        O472   1.286       .  A
C470       C1381   1.506       .  S
C471       C1637   1.507       .  S
C473        C885   1.445       .  S
Fe474       O490   2.033   1_455  S
Fe474       O480   2.065   1_455  S
Fe474       O487   2.070       .  S
Fe474       O479   2.032       .  S
Fe474       O485   1.942       .  S
Fe475       O478   2.026       .  S
Fe475       O482   2.062       .  S
Fe475       O486   2.027   1_655  S
Fe475       O491   2.058   1_655  S
Fe475       O485   1.942   1_655  S
Fe476       O494   2.139       .  S
Fe476       O481   2.122   1_655  S
Fe476       O488   2.122       .  S
Fe476       O477   2.131   1_655  S
Fe476       O485   1.939   1_655  S
O477        C484   1.283       .  A
O478        C492   1.263       .  A
O479        C484   1.263       .  A
O480        C483   1.268       .  A
O481        C493   1.282       .  A
O482        C495   1.266       .  A
C483        O488   1.285       .  A
C483       C1973   1.505       .  S
C484       C2117   1.483       .  S
O486        C489   1.261       .  A
O487        C489   1.271       .  A
C489        C834   1.454       .  S
O490        C495   1.261       .  A
O491        C493   1.264       .  A
C492        O494   1.286       .  A
C492       C1765   1.495       .  S
C493       C1589   1.504       .  S
C495        C853   1.455       .  S
C496        C821   1.476       .  S
C496        C497   1.399       .  A
C496        C501   1.400       .  A
C497        C498   1.395       .  A
C497        H502   1.083       .  S
C498        C866   1.457       .  S
C498        C499   1.393       .  A
C499        C500   1.395       .  A
C499        H503   1.085       .  S
C500        C837   1.476       .  S
C500        C501   1.397       .  A
C501        H504   1.083       .  S
Fe505       O521   2.036   1_556  S
Fe505       O511   2.045   1_556  S
Fe505       O518   2.054       .  S
Fe505       O510   2.025       .  S
Fe505       O516   1.956   1_556  S
Fe506       O509   2.037       .  S
Fe506       O513   2.052       .  S
Fe506       O517   2.037   1_554  S
Fe506       O522   2.045   1_554  S
Fe506       O516   1.960       .  S
Fe507       O525   2.135       .  S
Fe507       O512   2.133   1_554  S
Fe507       O519   2.131       .  S
Fe507       O508   2.130   1_554  S
Fe507       O516   1.956       .  S
O508        C515   1.284       .  A
O509        C523   1.265       .  A
O510        C515   1.262       .  A
O511        C514   1.262       .  A
O512        C524   1.283       .  A
O513        C526   1.263       .  A
C514        O519   1.285       .  A
C514       C1749   1.513       .  S
C515       C1253   1.490       .  S
O517        C520   1.264       .  A
O518        C520   1.267       .  A
C520        C802   1.450       .  S
O521        C526   1.262       .  A
O522        C524   1.261       .  A
C523        O525   1.287       .  A
C523       C1653   1.504       .  S
C524       C1349   1.506       .  S
C526        C786   1.465       .  S
C527        C770   1.456       .  S
C527        C528   1.393       .  A
C527        C532   1.394       .  A
C528        C529   1.390       .  A
C528        H533   1.084       .  S
C529        C850   1.456       .  S
C529        C530   1.396       .  A
C530        C531   1.395       .  A
C530        H534   1.083       .  S
C531        C789   1.468       .  S
C531        C532   1.398       .  A
C532        H535   1.085       .  S
Fe536       O552   2.034   1_556  S
Fe536       O542   2.058   1_556  S
Fe536       O549   2.044       .  S
Fe536       O541   2.034       .  S
Fe536       O547   1.965       .  S
Fe537       O540   2.033   1_556  S
Fe537       O544   2.041   1_556  S
Fe537       O548   2.033       .  S
Fe537       O553   2.042       .  S
Fe537       O547   1.964       .  S
Fe538       O556   2.125   1_556  S
Fe538       O543   2.134       .  S
Fe538       O550   2.125   1_556  S
Fe538       O539   2.133       .  S
Fe538       O547   1.960       .  S
O539        C546   1.282       .  A
O540        C554   1.262       .  A
O541        C546   1.262       .  A
O542        C545   1.265       .  A
O543        C555   1.287       .  A
O544        C557   1.265       .  A
C545        O550   1.283       .  A
C545       C1557   1.513       .  S
C546       C1493   1.487       .  S
O548        C551   1.260       .  A
O549        C551   1.263       .  A
C551        C933   1.449       .  S
O552        C557   1.263       .  A
O553        C555   1.263       .  A
C554        O556   1.281       .  A
C554       C1829   1.490       .  S
C555       C1202   1.503       .  S
C557        C754   1.444       .  S
Fe558       O574   2.038   1_545  S
Fe558       O564   2.050   1_545  S
Fe558       O571   2.053       .  S
Fe558       O563   2.038       .  S
Fe558       O569   1.958       .  S
Fe559       O562   2.038       .  S
Fe559       O566   2.051       .  S
Fe559       O570   2.033   1_565  S
Fe559       O575   2.057   1_565  S
Fe559       O569   1.950   1_565  S
Fe560       O578   2.135   1_545  S
Fe560       O565   2.121       .  S
Fe560       O572   2.122   1_545  S
Fe560       O561   2.137       .  S
Fe560       O569   1.950       .  S
O561        C568   1.286       .  A
O562        C576   1.264       .  A
O563        C568   1.267       .  A
O564        C567   1.265       .  A
O565        C577   1.282       .  A
O566        C579   1.267       .  A
C567        O572   1.282       .  A
C567       C2165   1.508       .  S
C568       C1061   1.508       .  S
O570        C573   1.262       .  A
O571        C573   1.265       .  A
C573        C738   1.451       .  S
O574        C579   1.264       .  A
O575        C577   1.266       .  A
C576        O578   1.285       .  A
C576       C1685   1.489       .  S
C577       C1845   1.506       .  S
C579        C818   1.454       .  S
Fe580       O596   2.043   1_655  S
Fe580       O586   2.046   1_655  S
Fe580       O593   2.054       .  S
Fe580       O585   2.037       .  S
Fe580       O591   1.960       .  S
Fe581       O584   2.042   1_655  S
Fe581       O588   2.048   1_655  S
Fe581       O592   2.044       .  S
Fe581       O597   2.043       .  S
Fe581       O591   1.957       .  S
Fe582       O600   2.147   1_655  S
Fe582       O587   2.133       .  S
Fe582       O594   2.130   1_655  S
Fe582       O583   2.150       .  S
Fe582       O591   1.956       .  S
O583        C590   1.291       .  A
O584        C598   1.267       .  A
O585        C590   1.265       .  A
O586        C589   1.261       .  A
O587        C599   1.282       .  A
O588        C601   1.263       .  A
C589        O594   1.282       .  A
C589       C1077   1.497       .  S
C590       C2069   1.518       .  S
O592        C595   1.264       .  A
O593        C595   1.264       .  A
C595        C722   1.449       .  S
O596        C601   1.266       .  A
O597        C599   1.262       .  A
C598        O600   1.289       .  A
C598       C1538   1.496       .  S
C599       C1781   1.508       .  S
C601        C709   1.473       .  S
C602        C706   1.468       .  S
C602        C603   1.397       .  A
C602        C607   1.396       .  A
C603        C604   1.390       .  A
C603        H608   1.085       .  S
C604        C757   1.459       .  S
C604        C605   1.393       .  A
C605        C606   1.396       .  A
C605        H609   1.084       .  S
C606        C741   1.457       .  S
C606        C607   1.397       .  A
C607        H610   1.082       .  S
Fe611       O627   2.038   1_556  S
Fe611       O617   2.055   1_556  S
Fe611       O624   2.057       .  S
Fe611       O616   2.035       .  S
Fe611       O622   1.962   1_556  S
Fe612       O615   2.044   1_556  S
Fe612       O619   2.058   1_556  S
Fe612       O623   2.034       .  S
Fe612       O628   2.054       .  S
Fe612       O622   1.965   1_556  S
Fe613       O631   2.135       .  S
Fe613       O618   2.127   1_554  S
Fe613       O625   2.132       .  S
Fe613       O614   2.133   1_554  S
Fe613       O622   1.956       .  S
O614        C621   1.285       .  A
O615        C629   1.267       .  A
O616        C621   1.265       .  A
O617        C620   1.264       .  A
O618        C630   1.281       .  A
O619        C632   1.265       .  A
C620        O625   1.282       .  A
C620       C1877   1.500       .  S
C621       C1170   1.484       .  S
O623        C626   1.262       .  A
O624        C626   1.266       .  A
C626        C994   1.446       .  S
O627        C632   1.264       .  A
O628        C630   1.264       .  A
C629        O631   1.286       .  A
C629       C1733   1.489       .  S
C630       C1301   1.504       .  S
C632        C690   1.458       .  S
Fe633       O649   2.034   1_545  S
Fe633       O639   2.054   1_545  S
Fe633       O646   2.062       .  S
Fe633       O638   2.034       .  S
Fe633       O644   1.963       .  S
Fe634       O637   2.038   1_545  S
Fe634       O641   2.055   1_545  S
Fe634       O645   2.030       .  S
Fe634       O650   2.049       .  S
Fe634       O644   1.964       .  S
Fe635       O653   2.136   1_545  S
Fe635       O640   2.122       .  S
Fe635       O647   2.121   1_545  S
Fe635       O636   2.146       .  S
Fe635       O644   1.955       .  S
O636        C643   1.288       .  A
O637        C651   1.266       .  A
O638        C643   1.265       .  A
O639        C642   1.264       .  A
O640        C652   1.281       .  A
O641        C654   1.266       .  A
C642        O647   1.279       .  A
C642       C1669   1.494       .  S
C643       C1861   1.493       .  S
O645        C648   1.262       .  A
O646        C648   1.268       .  A
C648        C677   1.454       .  S
O649        C654   1.261       .  A
O650        C652   1.263       .  A
C651        O653   1.286       .  A
C651       C1957   1.488       .  S
C652       C2021   1.496       .  S
C654        C773   1.456       .  S
C655        C674   1.473       .  S
C655        C656   1.398       .  A
C655        C660   1.398       .  A
C656        C657   1.393       .  A
C656        H661   1.084       .  S
C657        C725   1.456       .  S
C657        C658   1.393       .  A
C658        C659   1.395       .  A
C658        H662   1.085       .  S
C659        C693   1.460       .  S
C659        C660   1.399       .  A
C660        H663   1.082       .  S
C664        C917   1.468       .  S
C664        C665   1.404       .  A
C664        C669   1.398       .  A
C665        C666   1.396       .  A
C665        H670   1.083       .  S
C666       C1042   1.469       .  S
C666        C667   1.394       .  A
C667        C668   1.391       .  A
C667        H671   1.084       .  S
C668        C805   1.463       .  S
C668        C669   1.397       .  A
C669        H672   1.084       .  S
C673        C674   1.403       .  A
C673        C678   1.396       .  A
C673        H680   1.084       .  S
C674        C675   1.421       .  A
C675        C676   1.394       .  A
C675        C682   1.508       .  S
C676        C677   1.394       .  A
C676        H681   1.085       .  S
C677        C678   1.410       .  A
C678        C679   1.508       .  S
C679        H683   1.111       .  S
C679        H684   1.106       .  S
C679        H685   1.110       .  S
C682        H686   1.106       .  S
C682        H687   1.109       .  S
C682        H688   1.111       .  S
C689        C690   1.407       .  A
C689        C694   1.399       .  A
C689        H696   1.083       .  S
C690        C691   1.406       .  A
C691        C692   1.390       .  A
C691        C698   1.508       .  S
C692        C693   1.402       .  A
C692        H697   1.080       .  S
C693        C694   1.404       .  A
C694        C695   1.505       .  S
C695        H699   1.111       .  S
C695        H700   1.110       .  S
C695        H701   1.110       .  S
C698        H702   1.109       .  S
C698        H703   1.111       .  S
C698        H704   1.111       .  S
C705        C706   1.398       .  A
C705        C710   1.393       .  A
C705        H712   1.085       .  S
C706        C707   1.416       .  A
C707        C708   1.397       .  A
C707        C714   1.511       .  S
C708        C709   1.403       .  A
C708        H713   1.084       .  S
C709        C710   1.421       .  A
C710        C711   1.511       .  S
C711        H715   1.111       .  S
C711        H716   1.110       .  S
C711        H717   1.104       .  S
C714        H718   1.110       .  S
C714        H719   1.107       .  S
C714        H720   1.111       .  S
C721        C722   1.400       .  A
C721        C726   1.393       .  A
C721        H728   1.080       .  S
C722        C723   1.405       .  A
C723        C724   1.397       .  A
C723        C730   1.506       .  S
C724        C725   1.403       .  A
C724        H729   1.084       .  S
C725        C726   1.405       .  A
C726        C727   1.507       .  S
C727        H731   1.111       .  S
C727        H732   1.110       .  S
C727        H733   1.110       .  S
C730        H734   1.110       .  S
C730        H735   1.111       .  S
C730        H736   1.111       .  S
C737        C738   1.405       .  A
C737        C742   1.396       .  A
C737        H744   1.082       .  S
C738        C739   1.404       .  A
C739        C740   1.391       .  A
C739        C746   1.508       .  S
C740        C741   1.404       .  A
C740        H745   1.081       .  S
C741        C742   1.403       .  A
C742        C743   1.506       .  S
C743        H747   1.111       .  S
C743        H748   1.110       .  S
C743        H749   1.110       .  S
C746        H750   1.110       .  S
C746        H751   1.110       .  S
C746        H752   1.111       .  S
C753        C754   1.394       .  A
C753        C758   1.391       .  A
C753        H760   1.085       .  S
C754        C755   1.409       .  A
C755        C756   1.395       .  A
C755        C762   1.508       .  S
C756        C757   1.400       .  A
C756        H761   1.084       .  S
C757        C758   1.414       .  A
C758        C759   1.507       .  S
C759        H763   1.111       .  S
C759        H764   1.107       .  S
C759        H765   1.110       .  S
C762        H766   1.110       .  S
C762        H767   1.110       .  S
C762        H768   1.111       .  S
C769        C770   1.403       .  A
C769        C774   1.394       .  A
C769        H776   1.085       .  S
C770        C771   1.405       .  A
C771        C772   1.392       .  A
C771        C778   1.508       .  S
C772        C773   1.402       .  A
C772        H777   1.080       .  S
C773        C774   1.408       .  A
C774        C775   1.505       .  S
C775        H779   1.111       .  S
C775        H780   1.110       .  S
C775        H781   1.110       .  S
C778        H782   1.110       .  S
C778        H783   1.109       .  S
C778        H784   1.111       .  S
C785        C786   1.399       .  A
C785        C790   1.396       .  A
C785        H792   1.085       .  S
C786        C787   1.416       .  A
C787        C788   1.394       .  A
C787        C794   1.506       .  S
C788        C789   1.399       .  A
C788        H793   1.085       .  S
C789        C790   1.417       .  A
C790        C791   1.510       .  S
C791        H795   1.111       .  S
C791        H796   1.109       .  S
C791        H797   1.107       .  S
C794        H798   1.110       .  S
C794        H799   1.107       .  S
C794        H800   1.111       .  S
C801        C802   1.397       .  A
C801        C806   1.393       .  A
C801        H808   1.083       .  S
C802        C803   1.407       .  A
C803        C804   1.396       .  A
C803        C810   1.508       .  S
C804        C805   1.404       .  A
C804        H809   1.084       .  S
C805        C806   1.412       .  A
C806        C807   1.510       .  S
C807        H811   1.111       .  S
C807        H812   1.107       .  S
C807        H813   1.110       .  S
C810        H814   1.110       .  S
C810        H815   1.109       .  S
C810        H816   1.111       .  S
C817        C818   1.393       .  A
C817        C822   1.392       .  A
C817        H824   1.085       .  S
C818        C819   1.410       .  A
C819        C820   1.399       .  A
C819        C826   1.507       .  S
C820        C821   1.404       .  A
C820        H825   1.084       .  S
C821        C822   1.424       .  A
C822        C823   1.510       .  S
C823        H827   1.111       .  S
C823        H828   1.107       .  S
C823        H829   1.107       .  S
C826        H830   1.107       .  S
C826        H831   1.110       .  S
C826        H832   1.111       .  S
C833        C834   1.397       .  A
C833        C838   1.394       .  A
C833        H840   1.085       .  S
C834        C835   1.415       .  A
C835        C836   1.392       .  A
C835        C842   1.511       .  S
C836        C837   1.403       .  A
C836        H841   1.084       .  S
C837        C838   1.420       .  A
C838        C839   1.510       .  S
C839        H843   1.111       .  S
C839        H844   1.110       .  S
C839        H845   1.107       .  S
C842        H846   1.110       .  S
C842        H847   1.103       .  S
C842        H848   1.110       .  S
C849        C850   1.394       .  A
C849        C854   1.393       .  A
C849        H856   1.085       .  S
C850        C851   1.416       .  A
C851        C852   1.394       .  A
C851        C858   1.510       .  S
C852        C853   1.396       .  A
C852        H857   1.084       .  S
C853        C854   1.412       .  A
C854        C855   1.502       .  S
C855        H859   1.111       .  S
C855        H860   1.104       .  S
C855        H861   1.110   1_655  S
C858        H862   1.109       .  S
C858        H863   1.109       .  S
C858        H864   1.111       .  S
C865        C866   1.404       .  A
C865        C870   1.387       .  A
C865        H872   1.083       .  S
C866        C867   1.403       .  A
C867        C868   1.399       .  A
C867        C874   1.504       .  S
C868        C869   1.404       .  A
C868        H873   1.085       .  S
C869        C870   1.401       .  A
C870        C871   1.504       .  S
C871        H875   1.111       .  S
C871        H876   1.105       .  S
C871        H877   1.106       .  S
C874        H878   1.110       .  S
C874        H879   1.110       .  S
C874        H880   1.111       .  S
C881        C882   1.402       .  A
C881        C886   1.389       .  A
C881        H888   1.080       .  S
C882        C883   1.406       .  A
C883        C884   1.399       .  A
C883        C890   1.505       .  S
C884        C885   1.403       .  A
C884        H889   1.084       .  S
C885        C886   1.403       .  A
C886        C887   1.508       .  S
C887        H891   1.111       .  S
C887        H892   1.110       .  S
C887        H893   1.110       .  S
C890        H894   1.110       .  S
C890        H895   1.110       .  S
C890        H896   1.111       .  S
C897        C898   1.403       .  A
C897        C902   1.391       .  A
C897        H904   1.085       .  S
C898        C899   1.407       .  A
C899        C900   1.398       .  A
C899        C906   1.507       .  S
C900        C901   1.405       .  A
C900        H905   1.084       .  S
C901        C902   1.407       .  A
C902        C903   1.509       .  S
C903        H907   1.111       .  S
C903        H908   1.110       .  S
C903        H909   1.108       .  S
C906        H910   1.110       .  S
C906        H911   1.111       .  S
C906        H912   1.111       .  S
C913        C914   1.403       .  A
C913        C918   1.401       .  A
C913        H920   1.085       .  S
C914        C915   1.402       .  A
C915        C916   1.384       .  A
C915        C922   1.511       .  S
C916        C917   1.402       .  A
C916        H921   1.073       .  S
C917        C918   1.412       .  A
C918        C919   1.506       .  S
C919        H923   1.110       .  S
C919        H924   1.111       .  S
C919        H925   1.108       .  S
C922        H926   1.110       .  S
C922        H927   1.109       .  S
C922        H928   1.111       .  S
C929        C930   1.399       .  A
C929        C934   1.395       .  A
C929        H936   1.085       .  S
C930        C931   1.417       .  A
C931        C932   1.393       .  A
C931        C938   1.511       .  S
C932        C933   1.395       .  A
C932        H937   1.085       .  S
C933        C934   1.411       .  A
C934        C935   1.508       .  S
C935        H939   1.111       .  S
C935        H940   1.109       .  S
C935        H941   1.110       .  S
C938        H942   1.108       .  S
C938        H943   1.110       .  S
C938        H944   1.111       .  S
C945        C946   1.394       .  A
C945        C950   1.393       .  A
C945        H952   1.085       .  S
C946        C947   1.413       .  A
C947        C948   1.396       .  A
C947        C954   1.509       .  S
C948        C949   1.400       .  A
C948        H953   1.084       .  S
C949        C950   1.418       .  A
C950        C951   1.508       .  S
C951        H955   1.111       .  S
C951        H956   1.109       .  S
C951        H957   1.105       .  S
C954        H958   1.111       .  S
C954        H959   1.108       .  S
C954        H960   1.111       .  S
C961        C962   1.405       .  A
C961        C966   1.396       .  A
C961        H968   1.084       .  S
C962        C963   1.423       .  A
C963        C964   1.395       .  A
C963        C970   1.507       .  S
C964        C965   1.400       .  A
C964        H969   1.083       .  S
C965        C966   1.421       .  A
C966        C967   1.512       .  S
C967        H971   1.111       .  S
C967        H972   1.111       .  S
C967        H973   1.109       .  S
C970        H974   1.101       .  S
C970        H975   1.108       .  S
C970        H976   1.111       .  S
C977        C978   1.405       .  A
C977        C982   1.392       .  A
C977        H984   1.084       .  S
C978        C979   1.402       .  A
C979        C980   1.395       .  A
C979        C986   1.505       .  S
C980        C981   1.402       .  A
C980        H985   1.081       .  S
C981        C982   1.402       .  A
C982        C983   1.507       .  S
C983        H987   1.111       .  S
C983        H988   1.111       .  S
C983        H989   1.110       .  S
C986        H990   1.110       .  S
C986        H991   1.110       .  S
C986        H992   1.110       .  S
C993        C994   1.399       .  A
C993        C998   1.394       .  A
C993       H1000   1.083       .  S
C994        C995   1.403       .  A
C995        C996   1.395       .  A
C995       C1002   1.506       .  S
C996        C997   1.404       .  A
C996       H1001   1.084       .  S
C997        C998   1.408       .  A
C998        C999   1.508       .  S
C999       H1003   1.111       .  S
C999       H1004   1.109       .  S
C999       H1005   1.111       .  S
C1002      H1006   1.110       .  S
C1002      H1007   1.110       .  S
C1002      H1008   1.111       .  S
C1009      C1010   1.406       .  A
C1009      C1014   1.394       .  A
C1009      H1016   1.082       .  S
C1010      C1011   1.410       .  A
C1011      C1012   1.396       .  A
C1011      C1018   1.509       .  S
C1012      C1013   1.405       .  A
C1012      H1017   1.084       .  S
C1013      C1014   1.406       .  A
C1014      C1015   1.509       .  S
C1015      H1019   1.111       .  S
C1015      H1020   1.110       .  S
C1015      H1021   1.108       .  S
C1018      H1022   1.109       .  S
C1018      H1023   1.111       .  S
C1018      H1024   1.111       .  S
C1025      C1026   1.401       .  A
C1025      C1030   1.395       .  A
C1025      H1032   1.083       .  S
C1026      C1027   1.407       .  A
C1027      C1028   1.392       .  A
C1027      C1034   1.510       .  S
C1028      C1029   1.407       .  A
C1028      H1033   1.084       .  S
C1029      C1030   1.412       .  A
C1030      C1031   1.508       .  S
C1031      H1035   1.111       .  S
C1031      H1036   1.110       .  S
C1031      H1037   1.108       .  S
C1034      H1038   1.110       .  S
C1034      H1039   1.109       .  S
C1034      H1040   1.111       .  S
C1041      C1042   1.399       .  A
C1041      C1046   1.395       .  A
C1041      H1048   1.085       .  S
C1042      C1043   1.416       .  A
C1043      C1044   1.392       .  A
C1043      C1050   1.503       .  S
C1044      C1045   1.398       .  A
C1044      H1049   1.084       .  S
C1045      C1046   1.418       .  A
C1046      C1047   1.506       .  S
C1047      H1051   1.111       .  S
C1047      H1052   1.110       .  S
C1047      H1053   1.106       .  S
C1050      H1054   1.109       .  S
C1050      H1055   1.108       .  S
C1050      H1056   1.111       .  S
C1057      C1058   1.415       .  A
C1057      C1062   1.411       .  A
C1057      H1064   1.084       .  S
C1058      C1059   1.412       .  A
C1059      C1060   1.411       .  A
C1059      C1066   1.507       .  S
C1060      C1061   1.417       .  A
C1060      H1065   1.083       .  S
C1061      C1062   1.415       .  A
C1062      C1063   1.507       .  S
C1063      H1067   1.111       .  S
C1063      H1068   1.110       .  S
C1063      H1069   1.110       .  S
C1066      H1070   1.111       .  S
C1066      H1071   1.110       .  S
C1066      H1072   1.111       .  S
C1073      C1074   1.404       .  A
C1073      C1078   1.415       .  A
C1073      H1080   1.084       .  S
C1074      C1075   1.422       .  A
C1075      C1076   1.414       .  A
C1075      C1082   1.506       .  S
C1076      C1077   1.402       .  A
C1076      H1081   1.084       .  S
C1077      C1078   1.421       .  A
C1078      C1079   1.508       .  S
C1079      H1083   1.111       .  S
C1079      H1084   1.110       .  S
C1079      H1085   1.111       .  S
C1082      H1086   1.111       .  S
C1082      H1087   1.107       .  S
C1082      H1088   1.111       .  S
C1089      C1090   1.417       .  A
C1089      C1094   1.411       .  A
C1089      H1096   1.084       .  S
C1090      C1091   1.425       .  A
C1091      C1092   1.411       .  A
C1091      C1098   1.509       .  S
C1092      C1093   1.405       .  A
C1092      H1097   1.085       .  S
C1093      C1094   1.406       .  A
C1094      C1095   1.504       .  S
C1095      H1099   1.111       .  S
C1095      H1100   1.111       .  S
C1095      H1101   1.110       .  S
C1098      H1102   1.110       .  S
C1098      H1103   1.100       .  S
C1098      H1104   1.111       .  S
C1105      C1106   1.411       .  A
C1105      C1110   1.414       .  A
C1105      H1112   1.084       .  S
C1106      C1107   1.412       .  A
C1107      C1108   1.414       .  A
C1107      C1114   1.505       .  S
C1108      C1109   1.411       .  A
C1108      H1113   1.084       .  S
C1109      C1110   1.413       .  A
C1110      C1111   1.504       .  S
C1111      H1115   1.111       .  S
C1111      H1116   1.109       .  S
C1111      H1117   1.111       .  S
C1114      H1118   1.110       .  S
C1114      H1119   1.110       .  S
C1114      H1120   1.111       .  S
C1121      C1122   1.414       .  A
C1121      C1126   1.401       .  A
C1121      H1128   1.081       .  S
C1122      C1123   1.430       .  A
C1123      C1124   1.394       .  A
C1123      C1130   1.508       .  S
C1124      C1125   1.397       .  A
C1124      H1129   1.084       .  S
C1125      C1126   1.412       .  A
C1126      C1127   1.509       .  S
C1127      H1131   1.111       .  S
C1127      H1132   1.110       .  S
C1127      H1133   1.110       .  S
C1130      H1134   1.110       .  S
C1130      H1135   1.100       .  S
C1130      H1136   1.111       .  S
C1137      C1138   1.395       .  A
C1137      C1142   1.392       .  A
C1137      H1144   1.085       .  S
C1138      C1139   1.410       .  A
C1139      C1140   1.394       .  A
C1139      C1146   1.504       .  S
C1140      C1141   1.396       .  A
C1140      H1145   1.084       .  S
C1141      C1142   1.411       .  A
C1142      C1143   1.507       .  S
C1143      H1147   1.111       .  S
C1143      H1148   1.108       .  S
C1143      H1149   1.110       .  S
C1146      H1150   1.106       .  S
C1146      H1151   1.110       .  S
C1146      H1152   1.111       .  S
C1153      C1154   1.397       .  A
C1153      C1158   1.411       .  A
C1153      H1160   1.084       .  S
C1154      C1155   1.426       .  A
C1155      C1156   1.409       .  A
C1155      C1162   1.510       .  S
C1156      C1157   1.402       .  A
C1156      H1161   1.083       .  S
C1157      C1158   1.435       .  A
C1158      C1159   1.510       .  S
C1159      H1163   1.111       .  S
C1159      H1164   1.110       .  S
C1159      H1165   1.110       .  S
C1162      H1166   1.111       .  S
C1162      H1167   1.109       .  S
C1162      H1168   1.111       .  S
C1169      C1170   1.406       .  A
C1169      C1174   1.413       .  A
C1169      H1176   1.084       .  S
C1170      C1171   1.407       .  A
C1171      C1172   1.408       .  A
C1171      C1178   1.506       .  S
C1172      C1173   1.414       .  A
C1172      H1177   1.083       .  S
C1173      C1174   1.419       .  A
C1174      C1175   1.507       .  S
C1175      H1179   1.111       .  S
C1175      H1180   1.110       .  S
C1175      H1181   1.110       .  S
C1178      H1182   1.109       .  S
C1178      H1183   1.110       .  S
C1178      H1184   1.111       .  S
C1185      C1186   1.398       .  A
C1185      C1190   1.412       .  A
C1185      H1192   1.084       .  S
C1186      C1187   1.428       .  A
C1187      C1188   1.414       .  A
C1187      C1194   1.509       .  S
C1188      C1189   1.402       .  A
C1188      H1193   1.084       .  S
C1189      C1190   1.433       .  A
C1190      C1191   1.510       .  S
C1191      H1195   1.111       .  S
C1191      H1196   1.109       .  S
C1191      H1197   1.108       .  S
C1194      H1198   1.110       .  S
C1194      H1199   1.109       .  S
C1194      H1200   1.111       .  S
C1201      C1202   1.399       .  A
C1201      C1206   1.413       .  A
C1201      H1208   1.084       .  S
C1202      C1203   1.428       .  A
C1203      C1204   1.413       .  A
C1203      C1210   1.510       .  S
C1204      C1205   1.401       .  A
C1204      H1209   1.084       .  S
C1205      C1206   1.432       .  A
C1206      C1207   1.510       .  S
C1207      H1211   1.111       .  S
C1207      H1212   1.109       .  S
C1207      H1213   1.109       .  S
C1210      H1214   1.110       .  S
C1210      H1215   1.109       .  S
C1210      H1216   1.111       .  S
C1217      C1218   1.399       .  A
C1217      C1222   1.393       .  A
C1217      H1224   1.085       .  S
C1218      C1219   1.404       .  A
C1219      C1220   1.394       .  A
C1219      C1226   1.507       .  S
C1220      C1221   1.402       .  A
C1220      H1225   1.084       .  S
C1221      C1222   1.406       .  A
C1222      C1223   1.507       .  S
C1223      H1227   1.111       .  S
C1223      H1228   1.110       .  S
C1223      H1229   1.111       .  S
C1226      H1230   1.111       .  S
C1226      H1231   1.110       .  S
C1226      H1232   1.111       .  S
C1233      C1234   1.398       .  A
C1233      C1238   1.396       .  A
C1233      H1240   1.085       .  S
C1234      C1235   1.407       .  A
C1235      C1236   1.392       .  A
C1235      C1242   1.508       .  S
C1236      C1237   1.402       .  A
C1236      H1241   1.085       .  S
C1237      C1238   1.413       .  A
C1238      C1239   1.509       .  S
C1239      H1243   1.111       .  S
C1239      H1244   1.107       .  S
C1239      H1245   1.110       .  S
C1242      H1246   1.109       .  S
C1242      H1247   1.110       .  S
C1242      H1248   1.111       .  S
C1249      C1250   1.406       .  A
C1249      C1254   1.411       .  A
C1249      H1256   1.083       .  S
C1250      C1251   1.436       .  A
C1251      C1252   1.407       .  A
C1251      C1258   1.502       .  S
C1252      C1253   1.390       .  A
C1252      H1257   1.084       .  S
C1253      C1254   1.422       .  A
C1254      C1255   1.509       .  S
C1255      H1259   1.111       .  S
C1255      H1260   1.111       .  S
C1255      H1261   1.108       .  S
C1258      H1262   1.110       .  S
C1258      H1263   1.099       .  S
C1258      H1264   1.111       .  S
C1265      C1266   1.400       .  A
C1265      C1270   1.415       .  A
C1265      H1272   1.084       .  S
C1266      C1267   1.426       .  A
C1267      C1268   1.416       .  A
C1267      C1274   1.509       .  S
C1268      C1269   1.404       .  A
C1268      H1273   1.084       .  S
C1269      C1270   1.434       .  A
C1270      C1271   1.509       .  S
C1271      H1275   1.111       .  S
C1271      H1276   1.109       .  S
C1271      H1277   1.107       .  S
C1274      H1278   1.111       .  S
C1274      H1279   1.108       .  S
C1274      H1280   1.111       .  S
C1281      C1282   1.411       .  A
C1281      C1286   1.409       .  A
C1281      H1288   1.084       .  S
C1282      C1283   1.419       .  A
C1283      C1284   1.414       .  A
C1283      C1290   1.507       .  S
C1284      C1285   1.406       .  A
C1284      H1289   1.085       .  S
C1285      C1286   1.409       .  A
C1286      C1287   1.503       .  S
C1287      H1291   1.111       .  S
C1287      H1292   1.109       .  S
C1287      H1293   1.108       .  S
C1290      H1294   1.110       .  S
C1290      H1295   1.111       .  S
C1290      H1296   1.111       .  S
C1297      C1298   1.412       .  A
C1297      C1302   1.415       .  A
C1297      H1304   1.085       .  S
C1298      C1299   1.413       .  A
C1299      C1300   1.415       .  A
C1299      C1306   1.503       .  S
C1300      C1301   1.413       .  A
C1300      H1305   1.085       .  S
C1301      C1302   1.417       .  A
C1302      C1303   1.506       .  S
C1303      H1307   1.111       .  S
C1303      H1308   1.110       .  S
C1303      H1309   1.106       .  S
C1306      H1310   1.109       .  S
C1306      H1311   1.111       .  S
C1306      H1312   1.111       .  S
C1313      C1314   1.402       .  A
C1313      C1318   1.401       .  A
C1313      H1320   1.085       .  S
C1314      C1315   1.405       .  A
C1315      C1316   1.389       .  A
C1315      C1322   1.499       .  S
C1316      C1317   1.403       .  A
C1316      H1321   1.084       .  S
C1317      C1318   1.415       .  A
C1318      C1319   1.508       .  S
C1319      H1323   1.111       .  S
C1319      H1324   1.110       .  S
C1319      H1325   1.107       .  S
C1322      H1326   1.110       .  S
C1322      H1327   1.105       .  S
C1322      H1328   1.111       .  S
C1329      C1330   1.401       .  A
C1329      C1334   1.394       .  A
C1329      H1336   1.085       .  S
C1330      C1331   1.406       .  A
C1331      C1332   1.392       .  A
C1331      C1338   1.509       .  S
C1332      C1333   1.407       .  A
C1332      H1337   1.084       .  S
C1333      C1334   1.411       .  A
C1334      C1335   1.508       .  S
C1335      H1339   1.111       .  S
C1335      H1340   1.110       .  S
C1335      H1341   1.108       .  S
C1338      H1342   1.109       .  S
C1338      H1343   1.109       .  S
C1338      H1344   1.111       .  S
C1345      C1346   1.400       .  A
C1345      C1350   1.413       .  A
C1345      H1352   1.084       .  S
C1346      C1347   1.426       .  A
C1347      C1348   1.415       .  A
C1347      C1354   1.509       .  S
C1348      C1349   1.402       .  A
C1348      H1353   1.084       .  S
C1349      C1350   1.428       .  A
C1350      C1351   1.509       .  S
C1351      H1355   1.111       .  S
C1351      H1356   1.108       .  S
C1351      H1357   1.111       .  S
C1354      H1358   1.111       .  S
C1354      H1359   1.109       .  S
C1354      H1360   1.111       .  S
C1361      C1362   1.409       .  A
C1361      C1366   1.411       .  A
C1361      H1368   1.084       .  S
C1362      C1363   1.416       .  A
C1363      C1364   1.413       .  A
C1363      C1370   1.507       .  S
C1364      C1365   1.406       .  A
C1364      H1369   1.083       .  S
C1365      C1366   1.412       .  A
C1366      C1367   1.506       .  S
C1367      H1371   1.111       .  S
C1367      H1372   1.110       .  S
C1367      H1373   1.110       .  S
C1370      H1374   1.110       .  S
C1370      H1375   1.110       .  S
C1370      H1376   1.111       .  S
C1377      C1378   1.407       .  A
C1377      C1382   1.413       .  A
C1377      H1384   1.084       .  S
C1378      C1379   1.407       .  A
C1379      C1380   1.410       .  A
C1379      C1386   1.506       .  S
C1380      C1381   1.416       .  A
C1380      H1385   1.083       .  S
C1381      C1382   1.418       .  A
C1382      C1383   1.506       .  S
C1383      H1387   1.111       .  S
C1383      H1388   1.110       .  S
C1383      H1389   1.111       .  S
C1386      H1390   1.111       .  S
C1386      H1391   1.110       .  S
C1386      H1392   1.111       .  S
C1393      C1394   1.403       .  A
C1393      C1398   1.415       .  A
C1393      H1400   1.084       .  S
C1394      C1395   1.423       .  A
C1395      C1396   1.416       .  A
C1395      C1402   1.507       .  S
C1396      C1397   1.403       .  A
C1396      H1401   1.084       .  S
C1397      C1398   1.423       .  A
C1398      C1399   1.509       .  S
C1399      H1403   1.111       .  S
C1399      H1404   1.109       .  S
C1399      H1405   1.111       .  S
C1402      H1406   1.111       .  S
C1402      H1407   1.108       .  S
C1402      H1408   1.111       .  S
C1409      C1410   1.398       .  A
C1409      C1414   1.395       .  A
C1409      H1416   1.084       .  S
C1410      C1411   1.421       .  A
C1411      C1412   1.389       .  A
C1411      C1418   1.508       .  S
C1412      C1413   1.388       .  A
C1412      H1417   1.085       .  S
C1413      C1414   1.410       .  A
C1414      C1415   1.507       .  S
C1415      H1419   1.111       .  S
C1415      H1420   1.107       .  S
C1415      H1421   1.110       .  S
C1418      H1422   1.107       .  S
C1418      H1423   1.104       .  S
C1418      H1424   1.111       .  S
C1425      C1426   1.387       .  A
C1425      C1430   1.387       .  A
C1425      H1432   1.086       .  S
C1426      C1427   1.410       .  A
C1427      C1428   1.400       .  A
C1427      C1434   1.507       .  S
C1428      C1429   1.405       .  A
C1428      H1433   1.084       .  S
C1429      C1430   1.422       .  A
C1430      C1431   1.498       .  S
C1431      H1435   1.111       .  S
C1431      H1436   1.106       .  S
C1431      H1437   1.110       .  S
C1434      H1438   1.109       .  S
C1434      H1439   1.110       .  S
C1434      H1440   1.111       .  S
C1441      C1442   1.401       .  A
C1441      C1446   1.413       .  A
C1441      H1448   1.083       .  S
C1442      C1443   1.436       .  A
C1443      C1444   1.413       .  A
C1443      C1450   1.511       .  S
C1444      C1445   1.400       .  A
C1444      H1449   1.083       .  S
C1445      C1446   1.434       .  A
C1446      C1447   1.510       .  S
C1447      H1451   1.111       .  S
C1447      H1452   1.110       .  S
C1447      H1453   1.110       .  S
C1450      H1454   1.110       .  S
C1450      H1455   1.110       .  S
C1450      H1456   1.111       .  S
C1457      C1458   1.409       .  A
C1457      C1462   1.407       .  A
C1457      H1464   1.085       .  S
C1458      C1459   1.416       .  A
C1459      C1460   1.411       .  A
C1459      C1466   1.506       .  S
C1460      C1461   1.406       .  A
C1460      H1465   1.085       .  S
C1461      C1462   1.411       .  A
C1462      C1463   1.507       .  S
C1463      H1467   1.111       .  S
C1463      H1468   1.110       .  S
C1463      H1469   1.110       .  S
C1466      H1470   1.110       .  S
C1466      H1471   1.107       .  S
C1466      H1472   1.111       .  S
C1473      C1474   1.403       .  A
C1473      C1478   1.414       .  A
C1473      H1480   1.084       .  S
C1474      C1475   1.419       .  A
C1475      C1476   1.415       .  A
C1475      C1482   1.507       .  S
C1476      C1477   1.404       .  A
C1476      H1481   1.084       .  S
C1477      C1478   1.420       .  A
C1478      C1479   1.506       .  S
C1479      H1483   1.111       .  S
C1479      H1484   1.109       .  S
C1479      H1485   1.109       .  S
C1482      H1486   1.111       .  S
C1482      H1487   1.109       .  S
C1482      H1488   1.111       .  S
C1489      C1490   1.405       .  A
C1489      C1494   1.412       .  A
C1489      H1496   1.084       .  S
C1490      C1491   1.416       .  A
C1491      C1492   1.409       .  A
C1491      C1498   1.508       .  S
C1492      C1493   1.404       .  A
C1492      H1497   1.084       .  S
C1493      C1494   1.416       .  A
C1494      C1495   1.507       .  S
C1495      H1499   1.111       .  S
C1495      H1500   1.110       .  S
C1495      H1501   1.110       .  S
C1498      H1502   1.110       .  S
C1498      H1503   1.110       .  S
C1498      H1504   1.111       .  S
C1505      C1506   1.402       .  A
C1505      C1510   1.395       .  A
C1505      H1512   1.079       .  S
C1506      C1507   1.407       .  A
C1507      C1508   1.392       .  A
C1507      C1514   1.509       .  S
C1508      C1509   1.409       .  A
C1508      H1513   1.083       .  S
C1509      C1510   1.416       .  A
C1510      C1511   1.510       .  S
C1511      H1515   1.111       .  S
C1511      H1516   1.110       .  S
C1511      H1517   1.110       .  S
C1514      H1518   1.108       .  S
C1514      H1519   1.110       .  S
C1514      H1520   1.110       .  S
C1521      C1522   1.393       .  A
C1521      C1526   1.394       .  A
C1521      H1528   1.084       .  S
C1522      C1523   1.408       .  A
C1523      C1524   1.390       .  A
C1523      C1530   1.501       .  S
C1524      C1525   1.395       .  A
C1524      H1529   1.085       .  S
C1525      C1526   1.418       .  A
C1526      C1527   1.509       .  S
C1527      H1531   1.111       .  S
C1527      H1532   1.108       .  S
C1527      H1533   1.105       .  S
C1530      H1534   1.108       .  S
C1530      H1535   1.110       .  S
C1530      H1536   1.111       .  S
C1537      C1538   1.409       .  A
C1537      C1542   1.414       .  A
C1537      H1544   1.084       .  S
C1538      C1539   1.415       .  A
C1539      C1540   1.413       .  A
C1539      C1546   1.505       .  S
C1540      C1541   1.407       .  A
C1540      H1545   1.084       .  S
C1541      C1542   1.413       .  A
C1542      C1543   1.506       .  S
C1543      H1547   1.111       .  S
C1543      H1548   1.111       .  S
C1543      H1549   1.110       .  S
C1546      H1550   1.109       .  S
C1546      H1551   1.111       .  S
C1546      H1552   1.111       .  S
C1553      C1554   1.399       .  A
C1553      C1558   1.414       .  A
C1553      H1560   1.084       .  S
C1554      C1555   1.428       .  A
C1555      C1556   1.413       .  A
C1555      C1562   1.509       .  S
C1556      C1557   1.403       .  A
C1556      H1561   1.083       .  S
C1557      C1558   1.433       .  A
C1558      C1559   1.510       .  S
C1559      H1563   1.111       .  S
C1559      H1564   1.110       .  S
C1559      H1565   1.109       .  S
C1562      H1566   1.109       .  S
C1562      H1567   1.109       .  S
C1562      H1568   1.111       .  S
C1569      C1570   1.401       .  A
C1569      C1574   1.413       .  A
C1569      H1576   1.084       .  S
C1570      C1571   1.421       .  A
C1571      C1572   1.411       .  A
C1571      C1578   1.507       .  S
C1572      C1573   1.404       .  A
C1572      H1577   1.083       .  S
C1573      C1574   1.425       .  A
C1574      C1575   1.505       .  S
C1575      H1579   1.111       .  S
C1575      H1580   1.108       .  S
C1575      H1581   1.110       .  S
C1578      H1582   1.109       .  S
C1578      H1583   1.110       .  S
C1578      H1584   1.111       .  S
C1585      C1586   1.398       .  A
C1585      C1590   1.412       .  A
C1585      H1592   1.084       .  S
C1586      C1587   1.425       .  A
C1587      C1588   1.412       .  A
C1587      C1594   1.509       .  S
C1588      C1589   1.402       .  A
C1588      H1593   1.084       .  S
C1589      C1590   1.430       .  A
C1590      C1591   1.509       .  S
C1591      H1595   1.111       .  S
C1591      H1596   1.109       .  S
C1591      H1597   1.109       .  S
C1594      H1598   1.109       .  S
C1594      H1599   1.110       .  S
C1594      H1600   1.111       .  S
C1601      C1602   1.400       .  A
C1601      C1606   1.394       .  A
C1601      H1608   1.085       .  S
C1602      C1603   1.417       .  A
C1603      C1604   1.398       .  A
C1603      C1610   1.508       .  S
C1604      C1605   1.396       .  A
C1604      H1609   1.084       .  S
C1605      C1606   1.410       .  A
C1606      C1607   1.507       .  S
C1607      H1611   1.111       .  S
C1607      H1612   1.110       .  S
C1607      H1613   1.108       .  S
C1610      H1614   1.110       .  S
C1610      H1615   1.107       .  S
C1610      H1616   1.111       .  S
C1617      C1618   1.411       .  A
C1617      C1622   1.398       .  A
C1617      H1624   1.083       .  S
C1618      C1619   1.428       .  A
C1619      C1620   1.394       .  A
C1619      C1626   1.511       .  S
C1620      C1621   1.397       .  A
C1620      H1625   1.085       .  S
C1621      C1622   1.409       .  A
C1622      C1623   1.508       .  S
C1623      H1627   1.111       .  S
C1623      H1628   1.110       .  S
C1623      H1629   1.110       .  S
C1626      H1630   1.102       .  S
C1626      H1631   1.110       .  S
C1626      H1632   1.111       .  S
C1633      C1634   1.400       .  A
C1633      C1638   1.413       .  A
C1633      H1640   1.084       .  S
C1634      C1635   1.428       .  A
C1635      C1636   1.415       .  A
C1635      C1642   1.509       .  S
C1636      C1637   1.401       .  A
C1636      H1641   1.084       .  S
C1637      C1638   1.428       .  A
C1638      C1639   1.506       .  S
C1639      H1643   1.111       .  S
C1639      H1644   1.105       .  S
C1639      H1645   1.109       .  S
C1642      H1646   1.108       .  S
C1642      H1647   1.111       .  S
C1642      H1648   1.111       .  S
C1649      C1650   1.401       .  A
C1649      C1654   1.410       .  A
C1649      H1656   1.084       .  S
C1650      C1651   1.430       .  A
C1651      C1652   1.410       .  A
C1651      C1658   1.510       .  S
C1652      C1653   1.401       .  A
C1652      H1657   1.084       .  S
C1653      C1654   1.429       .  A
C1654      C1655   1.510       .  S
C1655      H1659   1.111       .  S
C1655      H1660   1.109       .  S
C1655      H1661   1.110       .  S
C1658      H1662   1.109       .  S
C1658      H1663   1.110       .  S
C1658      H1664   1.111       .  S
C1665      C1666   1.409       .  A
C1665      C1670   1.417       .  A
C1665      H1672   1.084       .  S
C1666      C1667   1.413       .  A
C1667      C1668   1.408       .  A
C1667      C1674   1.499       .  S
C1668      C1669   1.402       .  A
C1668      H1673   1.080       .  S
C1669      C1670   1.414       .  A
C1670      C1671   1.503       .  S
C1671      H1675   1.111       .  S
C1671      H1676   1.110       .  S
C1671      H1677   1.107       .  S
C1674      H1678   1.106       .  S
C1674      H1679   1.110       .  S
C1674      H1680   1.111       .  S
C1681      C1682   1.403       .  A
C1681      C1686   1.410       .  A
C1681      H1688   1.075       .  S
C1682      C1683   1.412       .  A
C1683      C1684   1.411       .  A
C1683      C1690   1.504       .  S
C1684      C1685   1.408       .  A
C1684      H1689   1.084       .  S
C1685      C1686   1.414       .  A
C1686      C1687   1.506       .  S
C1687      H1691   1.111       .  S
C1687      H1692   1.109       .  S
C1687      H1693   1.110       .  S
C1690      H1694   1.105       .  S
C1690      H1695   1.110       .  S
C1690      H1696   1.111       .  S
C1697      C1698   1.404       .  A
C1697      C1702   1.402       .  A
C1697      H1704   1.084       .  S
C1698      C1699   1.418       .  A
C1699      C1700   1.391       .  A
C1699      C1706   1.508       .  S
C1700      C1701   1.399       .  A
C1700      H1705   1.085       .  S
C1701      C1702   1.416       .  A
C1702      C1703   1.508       .  S
C1703      H1707   1.111       .  S
C1703      H1708   1.110       .  S
C1703      H1709   1.108       .  S
C1706      H1710   1.110       .  S
C1706      H1711   1.105       .  S
C1706      H1712   1.111       .  S
C1713      C1714   1.402       .  A
C1713      C1718   1.396       .  A
C1713      H1720   1.082       .  S
C1714      C1715   1.409       .  A
C1715      C1716   1.394       .  A
C1715      C1722   1.504       .  S
C1716      C1717   1.404       .  A
C1716      H1721   1.084       .  S
C1717      C1718   1.410       .  A
C1718      C1719   1.510       .  S
C1719      H1723   1.111       .  S
C1719      H1724   1.107       .  S
C1719      H1725   1.110       .  S
C1722      H1726   1.106       .  S
C1722      H1727   1.109       .  S
C1722      H1728   1.111       .  S
C1729      C1730   1.406       .  A
C1729      C1734   1.412       .  A
C1729      H1736   1.084       .  S
C1730      C1731   1.420       .  A
C1731      C1732   1.411       .  A
C1731      C1738   1.508       .  S
C1732      C1733   1.404       .  A
C1732      H1737   1.085       .  S
C1733      C1734   1.415       .  A
C1734      C1735   1.505       .  S
C1735      H1739   1.111       .  S
C1735      H1740   1.109       .  S
C1735      H1741   1.110       .  S
C1738      H1742   1.109       .  S
C1738      H1743   1.109       .  S
C1738      H1744   1.111       .  S
C1745      C1746   1.403       .  A
C1745      C1750   1.412       .  A
C1745      H1752   1.083       .  S
C1746      C1747   1.434       .  A
C1747      C1748   1.415       .  A
C1747      C1754   1.510       .  S
C1748      C1749   1.402       .  A
C1748      H1753   1.083       .  S
C1749      C1750   1.431       .  A
C1750      C1751   1.511       .  S
C1751      H1755   1.111       .  S
C1751      H1756   1.110       .  S
C1751      H1757   1.110       .  S
C1754      H1758   1.110       .  S
C1754      H1759   1.110       .  S
C1754      H1760   1.111       .  S
C1761      C1762   1.397       .  A
C1761      C1766   1.408       .  A
C1761      H1768   1.084       .  S
C1762      C1763   1.426       .  A
C1763      C1764   1.407       .  A
C1763      C1770   1.510       .  S
C1764      C1765   1.398       .  A
C1764      H1769   1.084       .  S
C1765      C1766   1.428       .  A
C1766      C1767   1.510       .  S
C1767      H1771   1.111       .  S
C1767      H1772   1.111       .  S
C1767      H1773   1.109       .  S
C1770      H1774   1.110       .  S
C1770      H1775   1.109       .  S
C1770      H1776   1.111       .  S
C1777      C1778   1.418       .  A
C1777      C1782   1.417       .  A
C1777      H1784   1.084       .  S
C1778      C1779   1.418       .  A
C1779      C1780   1.413       .  A
C1779      C1786   1.507       .  S
C1780      C1781   1.413       .  A
C1780      H1785   1.084       .  S
C1781      C1782   1.413       .  A
C1782      C1783   1.505       .  S
C1783      H1787   1.111       .  S
C1783      H1788   1.109       .  S
C1783      H1789   1.110       .  S
C1786      H1790   1.110       .  S
C1786      H1791   1.110       .  S
C1786      H1792   1.111       .  S
C1793      C1794   1.388       .  A
C1793      C1798   1.383       .  A
C1793      H1800   1.085       .  S
C1794      C1795   1.407       .  A
C1795      C1796   1.395       .  A
C1795      C1802   1.507       .  S
C1796      C1797   1.398       .  A
C1796      H1801   1.084       .  S
C1797      C1798   1.417       .  A
C1798      C1799   1.509       .  S
C1799      H1803   1.110       .  S
C1799      H1804   1.110       .  S
C1799      H1805   1.106       .  S
C1802      H1806   1.107       .  S
C1802      H1807   1.110       .  S
C1802      H1808   1.111       .  S
C1809      C1810   1.396       .  A
C1809      C1814   1.394       .  A
C1809      H1816   1.084       .  S
C1810      C1811   1.414       .  A
C1811      C1812   1.394       .  A
C1811      C1818   1.507       .  S
C1812      C1813   1.394       .  A
C1812      H1817   1.085       .  S
C1813      C1814   1.412       .  A
C1814      C1815   1.509       .  S
C1815      H1819   1.111       .  S
C1815      H1820   1.105       .  S
C1815      H1821   1.110       .  S
C1818      H1822   1.106       .  S
C1818      H1823   1.110       .  S
C1818      H1824   1.110       .  S
C1825      C1826   1.419       .  A
C1825      C1830   1.410       .  A
C1825      H1832   1.083       .  S
C1826      C1827   1.419       .  A
C1827      C1828   1.411       .  A
C1827      C1834   1.507       .  S
C1828      C1829   1.408       .  A
C1828      H1833   1.084       .  S
C1829      C1830   1.406       .  A
C1830      C1831   1.506       .  S
C1831      H1835   1.111       .  S
C1831      H1836   1.111       .  S
C1831      H1837   1.110       .  S
C1834      H1838   1.110       .  S
C1834      H1839   1.110       .  S
C1834      H1840   1.111       .  S
C1841      C1842   1.416       .  A
C1841      C1846   1.413       .  A
C1841      H1848   1.084       .  S
C1842      C1843   1.414       .  A
C1843      C1844   1.415       .  A
C1843      C1850   1.506       .  S
C1844      C1845   1.415       .  A
C1844      H1849   1.084       .  S
C1845      C1846   1.412       .  A
C1846      C1847   1.506       .  S
C1847      H1851   1.111       .  S
C1847      H1852   1.109       .  S
C1847      H1853   1.110       .  S
C1850      H1854   1.109       .  S
C1850      H1855   1.111       .  S
C1850      H1856   1.111       .  S
C1857      C1858   1.403       .  A
C1857      C1862   1.410       .  A
C1857      H1864   1.083       .  S
C1858      C1859   1.432       .  A
C1859      C1860   1.413       .  A
C1859      C1866   1.510       .  S
C1860      C1861   1.398       .  A
C1860      H1865   1.084       .  S
C1861      C1862   1.420       .  A
C1862      C1863   1.506       .  S
C1863      H1867   1.111       .  S
C1863      H1868   1.105       .  S
C1863      H1869   1.109       .  S
C1866      H1870   1.109       .  S
C1866      H1871   1.111       .  S
C1866      H1872   1.111       .  S
C1873      C1874   1.410       .  A
C1873      C1878   1.416       .  A
C1873      H1880   1.084       .  S
C1874      C1875   1.414       .  A
C1875      C1876   1.415       .  A
C1875      C1882   1.505       .  S
C1876      C1877   1.410       .  A
C1876      H1881   1.084       .  S
C1877      C1878   1.414       .  A
C1878      C1879   1.505       .  S
C1879      H1883   1.111       .  S
C1879      H1884   1.110       .  S
C1879      H1885   1.108       .  S
C1882      H1886   1.111       .  S
C1882      H1887   1.110       .  S
C1882      H1888   1.111       .  S
C1889      C1890   1.392       .  A
C1889      C1894   1.393       .  A
C1889      H1896   1.084       .  S
C1890      C1891   1.411       .  A
C1891      C1892   1.394       .  A
C1891      C1898   1.502       .  S
C1892      C1893   1.392       .  A
C1892      H1897   1.084       .  S
C1893      C1894   1.416       .  A
C1894      C1895   1.508       .  S
C1895      H1899   1.111       .  S
C1895      H1900   1.104       .  S
C1895      H1901   1.104       .  S
C1898      H1902   1.109       .  S
C1898      H1903   1.110       .  S
C1898      H1904   1.111       .  S
C1905      C1906   1.404       .  A
C1905      C1910   1.394       .  A
C1905      H1912   1.084       .  S
C1906      C1907   1.419       .  A
C1907      C1908   1.391       .  A
C1907      C1914   1.514       .  S
C1908      C1909   1.403       .  A
C1908      H1913   1.085       .  S
C1909      C1910   1.418       .  A
C1910      C1911   1.507       .  S
C1911      H1915   1.111       .  S
C1911      H1916   1.102       .  S
C1911      H1917   1.107       .  S
C1914      H1918   1.102       .  S
C1914      H1919   1.111       .  S
C1914      H1920   1.108       .  S
C1921      C1922   1.405       .  A
C1921      C1926   1.412       .  A
C1921      H1928   1.082       .  S
C1922      C1923   1.413       .  A
C1923      C1924   1.413       .  A
C1923      C1930   1.506       .  S
C1924      C1925   1.409       .  A
C1924      H1929   1.084       .  S
C1925      C1926   1.417       .  A
C1926      C1927   1.507       .  S
C1927      H1931   1.111       .  S
C1927      H1932   1.110       .  S
C1927      H1933   1.110       .  S
C1930      H1934   1.110       .  S
C1930      H1935   1.111       .  S
C1930      H1936   1.111       .  S
C1937      C1938   1.419       .  A
C1937      C1942   1.416       .  A
C1937      H1944   1.083       .  S
C1938      C1939   1.414       .  A
C1939      C1940   1.416       .  A
C1939      C1946   1.506       .  S
C1940      C1941   1.420       .  A
C1940      H1945   1.083       .  S
C1941      C1942   1.415       .  A
C1942      C1943   1.506       .  S
C1943      H1947   1.111       .  S
C1943      H1948   1.110       .  S
C1943      H1949   1.110       .  S
C1946      H1950   1.110       .  S
C1946      H1951   1.110       .  S
C1946      H1952   1.111       .  S
C1953      C1954   1.406       .  A
C1953      C1958   1.411       .  A
C1953      H1960   1.084       .  S
C1954      C1955   1.429       .  A
C1955      C1956   1.412       .  A
C1955      C1962   1.510       .  S
C1956      C1957   1.399       .  A
C1956      H1961   1.084       .  S
C1957      C1958   1.416       .  A
C1958      C1959   1.507       .  S
C1959      H1963   1.111       .  S
C1959      H1964   1.109       .  S
C1959      H1965   1.110       .  S
C1962      H1966   1.109       .  S
C1962      H1967   1.110       .  S
C1962      H1968   1.111       .  S
C1969      C1970   1.404       .  A
C1969      C1974   1.416       .  A
C1969      H1976   1.084       .  S
C1970      C1971   1.432       .  A
C1971      C1972   1.413       .  A
C1971      C1978   1.509       .  S
C1972      C1973   1.398       .  A
C1972      H1977   1.084       .  S
C1973      C1974   1.426       .  A
C1974      C1975   1.508       .  S
C1975      H1979   1.111       .  S
C1975      H1980   1.110       .  S
C1975      H1981   1.109       .  S
C1978      H1982   1.109       .  S
C1978      H1983   1.107       .  S
C1978      H1984   1.111       .  S
C1985      C1986   1.403       .  A
C1985      C1990   1.397       .  A
C1985      H1992   1.084       .  S
C1986      C1987   1.426       .  A
C1987      C1988   1.396       .  A
C1987      C1994   1.509       .  S
C1988      C1989   1.397       .  A
C1988      H1993   1.084       .  S
C1989      C1990   1.420       .  A
C1990      C1991   1.510       .  S
C1991      H1995   1.111       .  S
C1991      H1996   1.110       .  S
C1991      H1997   1.107       .  S
C1994      H1998   1.101       .  S
C1994      H1999   1.109       .  S
C1994      H2000   1.111       .  S
C2001      C2002   1.403       .  A
C2001      C2006   1.389       .  A
C2001      H2008   1.058       .  S
C2002      C2003   1.409       .  A
C2003      C2004   1.395       .  A
C2003      C2010   1.508       .  S
C2004      C2005   1.410       .  A
C2004      H2009   1.084       .  S
C2005      C2006   1.407       .  A
C2006      C2007   1.512       .  S
C2007      H2011   1.111       .  S
C2007      H2012   1.110       .  S
C2007      H2013   1.110       .  S
C2010      H2014   1.109       .  S
C2010      H2015   1.111       .  S
C2010      H2016   1.111       .  S
C2017      C2018   1.410       .  A
C2017      C2022   1.411       .  A
C2017      H2024   1.085       .  S
C2018      C2019   1.413       .  A
C2019      C2020   1.415       .  A
C2019      C2026   1.506       .  S
C2020      C2021   1.412       .  A
C2020      H2025   1.084       .  S
C2021      C2022   1.415       .  A
C2022      C2023   1.507       .  S
C2023      H2027   1.110       .  S
C2023      H2028   1.111       .  S
C2023      H2029   1.107       .  S
C2026      H2030   1.110       .  S
C2026      H2031   1.111       .  S
C2026      H2032   1.111       .  S
C2033      C2034   1.395       .  A
C2033      C2038   1.411       .  A
C2033      H2040   1.084       .  S
C2034      C2035   1.421       .  A
C2035      C2036   1.411       .  A
C2035      C2042   1.509       .  S
C2036      C2037   1.405       .  A
C2036      H2041   1.083       .  S
C2037      C2038   1.437       .  A
C2038      C2039   1.511       .  S
C2039      H2043   1.111       .  S
C2039      H2044   1.110       .  S
C2039      H2045   1.111       .  S
C2042      H2046   1.110       .  S
C2042      H2047   1.109       .  S
C2042      H2048   1.111       .  S
C2049      C2050   1.409       .  A
C2049      C2054   1.411       .  A
C2049      H2056   1.084       .  S
C2050      C2051   1.412       .  A
C2051      C2052   1.413       .  A
C2051      C2058   1.505       .  S
C2052      C2053   1.410       .  A
C2052      H2057   1.084       .  S
C2053      C2054   1.412       .  A
C2054      C2055   1.504       .  S
C2055      H2059   1.111       .  S
C2055      H2060   1.110       .  S
C2055      H2061   1.110       .  S
C2058      H2062   1.110       .  S
C2058      H2063   1.109       .  S
C2058      H2064   1.111       .  S
C2065      C2066   1.397       .  A
C2065      C2070   1.413       .  A
C2065      H2072   1.084       .  S
C2066      C2067   1.425       .  A
C2067      C2068   1.413       .  A
C2067      C2074   1.509       .  S
C2068      C2069   1.405       .  A
C2068      H2073   1.084       .  S
C2069      C2070   1.437       .  A
C2070      C2071   1.510       .  S
C2071      H2075   1.111       .  S
C2071      H2076   1.110       .  S
C2071      H2077   1.110       .  S
C2074      H2078   1.110       .  S
C2074      H2079   1.109       .  S
C2074      H2080   1.111       .  S
C2081      C2082   1.406       .  A
C2081      C2086   1.391       .  A
C2081      H2088   1.077       .  S
C2082      C2083   1.412       .  A
C2083      C2084   1.396       .  A
C2083      C2090   1.508       .  S
C2084      C2085   1.405       .  A
C2084      H2089   1.084       .  S
C2085      C2086   1.403       .  A
C2086      C2087   1.510       .  S
C2087      H2091   1.111       .  S
C2087      H2092   1.110       .  S
C2087      H2093   1.107       .  S
C2090      H2094   1.109       .  S
C2090      H2095   1.110       .  S
C2090      H2096   1.111       .  S
C2097      C2098   1.397       .  A
C2097      C2102   1.395       .  A
C2097      H2104   1.084       .  S
C2098      C2099   1.407       .  A
C2099      C2100   1.385       .  A
C2099      C2106   1.498       .  S
C2100      C2101   1.390       .  A
C2100      H2105   1.085       .  S
C2101      C2102   1.409       .  A
C2102      C2103   1.506       .  S
C2103      H2107   1.111       .  S
C2103      H2108   1.110       .  S
C2103      H2109   1.110       .  S
C2106      H2110   1.110       .  S
C2106      H2111   1.110       .  S
C2106      H2112   1.111       .  S
C2113      C2114   1.406       .  A
C2113      C2118   1.407       .  A
C2113      H2120   1.084       .  S
C2114      C2115   1.416       .  A
C2115      C2116   1.411       .  A
C2115      C2122   1.507       .  S
C2116      C2117   1.405       .  A
C2116      H2121   1.084       .  S
C2117      C2118   1.414       .  A
C2118      C2119   1.508       .  S
C2119      H2123   1.111       .  S
C2119      H2124   1.110       .  S
C2119      H2125   1.110       .  S
C2122      H2126   1.110       .  S
C2122      H2127   1.110       .  S
C2122      H2128   1.111       .  S
C2129      C2130   1.408       .  A
C2129      C2134   1.411       .  A
C2129      H2136   1.084       .  S
C2130      C2131   1.417       .  A
C2131      C2132   1.413       .  A
C2131      C2138   1.507       .  S
C2132      C2133   1.405       .  A
C2132      H2137   1.084       .  S
C2133      C2134   1.413       .  A
C2134      C2135   1.506       .  S
C2135      H2139   1.111       .  S
C2135      H2140   1.110       .  S
C2135      H2141   1.110       .  S
C2138      H2142   1.110       .  S
C2138      H2143   1.111       .  S
C2138      H2144   1.111       .  S
C2145      C2146   1.419       .  A
C2145      C2150   1.415       .  A
C2145      H2152   1.083       .  S
C2146      C2147   1.415       .  A
C2147      C2148   1.413       .  A
C2147      C2154   1.507       .  S
C2148      C2149   1.416       .  A
C2148      H2153   1.084       .  S
C2149      C2150   1.411       .  A
C2150      C2151   1.506       .  S
C2151      H2155   1.111       .  S
C2151      H2156   1.110       .  S
C2151      H2157   1.110       .  S
C2154      H2158   1.110       .  S
C2154      H2159   1.110       .  S
C2154      H2160   1.111       .  S
C2161      C2162   1.419       .  A
C2161      C2166   1.412       .  A
C2161      H2168   1.083       .  S
C2162      C2163   1.415       .  A
C2163      C2164   1.412       .  A
C2163      C2170   1.507       .  S
C2164      C2165   1.416       .  A
C2164      H2169   1.084       .  S
C2165      C2166   1.412       .  A
C2166      C2167   1.506       .  S
C2167      H2171   1.111       .  S
C2167      H2172   1.110       .  S
C2167      H2173   1.110       .  S
C2170      H2174   1.110       .  S
C2170      H2175   1.111       .  S
C2170      H2176   1.111       .  S
C2177      C2178   1.403       .  A
C2177      C2182   1.395       .  A
C2177      H2184   1.085       .  S
C2178      C2179   1.421       .  A
C2179      C2180   1.390       .  A
C2179      C2186   1.510       .  S
C2180      C2181   1.392       .  A
C2180      H2185   1.086       .  S
C2181      C2182   1.407       .  A
C2182      C2183   1.507       .  S
C2183      H2187   1.111       .  S
C2183      H2188   1.108       .  S
C2183      H2189   1.110       .  S
C2186      H2190   1.107       .  S
C2186      H2191   1.106       .  S
C2186      H2192   1.111       .  S
C2193      C2194   1.405       .  A
C2193      C2198   1.393       .  A
C2193      H2200   1.083       .  S
C2194      C2195   1.404       .  A
C2195      C2196   1.399       .  A
C2195      C2202   1.505       .  S
C2196      C2197   1.404       .  A
C2196      H2201   1.084       .  S
C2197      C2198   1.402       .  A
C2198      C2199   1.507       .  S
C2199      H2203   1.111       .  S
C2199      H2204   1.110       .  S
C2199      H2205   1.111       .  S
C2202      H2206   1.110       .  S
C2202      H2207   1.110       .  S
C2202      H2208   1.111       .  S
