geometry optimzed in LAMMPS
_audit_creation_date              2020-11-30 
_audit_creation_method            'lammps2cif' 
_symmetry_space_group_name_H-M    'P1' 
_symmetry_Int_Tables_number       1 
_symmetry_cell_setting            triclinic 
loop_ 
_symmetry_equiv_pos_as_xyz 
  x,y,z 
_cell_length_a                    48.30239163 
_cell_length_b                    47.92375582326249 
_cell_length_c                    32.00023254498227 
_cell_angle_alpha                 89.4575334208661 
_cell_angle_beta                  90.37279147285801 
_cell_angle_gamma                 120.72834095816914 
loop_ 
_atom_site_label 
_atom_site_type_symbol 
_atom_site_fract_x 
_atom_site_fract_y 
_atom_site_fract_z 
_atom_site_charge 
C1          C  0.00576686  0.13866335  0.30451343     0.86000
C2          C  0.03000557  0.12790511  0.30078614    -0.54300
C3          C  0.03252860  0.11717004  0.26214696     0.08900
C4          C  0.49552423  0.11031307  0.22782154     0.19800
C5          C  0.49201227  0.15959666  0.23709142    -0.55000
C6          C  0.01005940  0.14808053  0.22831592     0.09000
C7          C  0.46653293  0.11617311  0.28614318    -0.54500
C8          C  0.46529553  0.09370187  0.25872192     0.09600
H9          H  0.04417292  0.12810407  0.32698853     0.14100
H10         H  0.49611957  0.09362497  0.20453478    -0.00200
H11         H  0.49201448  0.18144030  0.22804082     0.14400
H12         H  0.44799680  0.11201192  0.30822763     0.14200
C13         C  0.12570535  0.15079046  0.26518532     0.86000
C14         C  0.12331271  0.11827613  0.25868954    -0.54300
C15         C  0.09674278  0.09497690  0.23714747     0.08900
C16         C  0.07815000  0.11053873  0.21562265     0.19800
C17         C  0.12944093  0.16351826  0.22130195    -0.55000
C18         C  0.10539404  0.14316571  0.19459887     0.09000
C19         C  0.09217329  0.14361624  0.27747024    -0.54500
C20         C  0.06637566  0.12294450  0.25237125     0.09600
H21         H  0.14005368  0.11306256  0.27486597     0.14100
H22         H  0.05881702  0.09405444  0.19381370    -0.00200
H23         H  0.15020381  0.18573353  0.21032992     0.14400
H24         H  0.09061710  0.15726028  0.30320541     0.14200
C25         C  0.10236931  0.03160827  0.29854077     0.86000
C26         C  0.07003282  0.00198864  0.29377717    -0.54300
C27         C  0.05545286  0.99745751  0.25555799     0.08900
C28         C  0.07603132  0.02836156  0.22545336     0.19800
C29         C  0.12260049  0.03321892  0.26087923    -0.55000
C30         C  0.10956534  0.03095528  0.22243524     0.09000
C31         C  0.09382485  0.05759776  0.29178472    -0.54500
C32         C  0.08365641  0.05963126  0.25203759     0.09600
H33         H  0.05894999  0.48774987  0.32136406     0.14100
H34         H  0.06441359  0.02654000  0.19478375    -0.00200
H35         H  0.14647219  0.03658983  0.26501679     0.14400
H36         H  0.09857399  0.07552591  0.31542628     0.14200
C37         C  0.99515902  0.40636966  0.26978432     0.86000
C38         C  0.46231100  0.41073111  0.25772663    -0.54300
C39         C  0.46438748  0.43493184  0.23181444     0.08900
C40         C  0.99625549  0.45076556  0.21882835     0.19800
C41         C  0.99603354  0.39870329  0.22469501    -0.55000
C42         C  0.51352414  0.43192785  0.20795654     0.09000
C43         C  0.02443073  0.44006639  0.27408362    -0.54500
C44         C  0.02621740  0.46466802  0.24915136     0.09600
H45         H  0.43964484  0.39152738  0.27045806     0.14100
H46         H  0.99672770  0.46909155  0.19692969    -0.00200
H47         H  0.99631157  0.37737029  0.21429696     0.14400
H48         H  0.04368061  0.44277396  0.29441277     0.14200
C49         C  0.39579875  0.43059974  0.29450113     0.86000
C50         C  0.40232038  0.46481308  0.29008772    -0.54300
C51         C  0.41132419  0.47871728  0.25075980     0.08900
C52         C  0.41800781  0.45621011  0.22037803     0.19800
C53         C  0.37398986  0.41181600  0.25759076    -0.55000
C54         C  0.38451240  0.42426969  0.21887510     0.09000
C55         C  0.42862979  0.43639968  0.28589598    -0.54500
C56         C  0.44065162  0.44631443  0.24597426     0.09600
H57         H  0.39845652  0.47692989  0.31577402     0.14100
H58         H  0.42748996  0.46721661  0.18923143    -0.00200
H59         H  0.35121823  0.38932890  0.26229875     0.14400
H60         H  0.44051975  0.43040427  0.31032502     0.14200
C61         C  0.37687490  0.02714177  0.28223779     0.86000
C62         C  0.41251422  0.05192991  0.29174887    -0.54300
C63         C  0.43453263  0.05951500  0.25973440     0.08900
C64         C  0.41806052  0.03546702  0.22277515     0.19800
C65         C  0.37063950  0.03913366  0.24140720    -0.55000
C66         C  0.39035845  0.04224800  0.20927609     0.09000
C67         C  0.37607721  0.99636723  0.26990044    -0.54500
C68         C  0.40045999  0.00014180  0.24365043     0.09600
H69         H  0.41882906  0.06411873  0.32141678     0.14100
H70         H  0.43462197  0.03853956  0.19693594    -0.00200
H71         H  0.35108731  0.04380572  0.23716837     0.14400
H72         H  0.36058235  0.48110865  0.28397338     0.14200
O73         O  0.25023428  0.09296672  0.45379061    -0.80700
O74         O  0.28486635  0.04056155  0.08108294    -0.80700
O75         O  0.18412703  0.04509611  0.04603493    -0.80700
O76         O  0.30169386  0.08062370  0.51458889    -0.80600
O77         O  0.21986088  0.04160543  0.08660154    -0.80800
O78         O  0.30243515  0.08854960  0.44731912    -0.80700
O79         O  0.31386243  0.02982484  0.03708806    -0.80700
O80         O  0.24654471  0.08534530  0.02144049    -0.80700
C81         C  0.25246610  0.10334002  0.49074690     1.09000
C82         C  0.30974092  0.03715760  0.07352215     1.08900
C83         C  0.19364574  0.04320664  0.08232057     1.09100
C84         C  0.31379082  0.09880882  0.48332395     1.08900
O85         O  0.26704274  0.02591740  0.40829141    -0.80700
O86         O  0.19011724  0.47934617  0.04661734    -0.80700
O87         O  0.19347968  0.05027829  0.46157899    -0.80700
O88         O  0.25889186  0.48786398  0.98025821    -0.80600
O89         O  0.24250920  0.47732941  0.04371172    -0.80700
O90         O  0.21103115  0.03033535  0.41427189    -0.80700
O91         O  0.30726642  0.03972406  0.45152454    -0.80600
O92         O  0.17671078  0.49881222  0.99464409    -0.80700
Co93       Co  0.25630669  0.05696778  0.43434028     1.51500
Co94       Co  0.23577462  0.51421077  0.05368509     1.51700
Co95       Co  0.21287546  0.03999915  0.01173152     1.51600
Co96       Co  0.28178681  0.03182955  0.00546986     1.51500
O97         O  0.24324751  0.02970258  0.99054314    -1.42600
C98         C  0.29451545  0.02938550  0.41578476     1.09000
C99         C  0.17099932  0.47522535  0.01736940     1.09100
C100        C  0.19103482  0.03845012  0.42567292     1.09000
C101        C  0.24716891  0.46796867  0.00947374     1.09000
O102        O  0.99806922  0.24371102  0.41706859    -0.80700
O103        O  0.44308144  0.28385067  0.04916447    -0.80700
O104        O  0.45355850  0.21943314  0.98865687    -0.80700
O105        O  0.00199223  0.33812441  0.44536460    -0.80600
O106        O  0.44074806  0.22901333  0.04864115    -0.80800
O107        O  0.99204577  0.29775415  0.40482119    -0.80700
O108        O  0.45423813  0.30525752  0.98792850    -0.80700
O109        O  0.51073515  0.23174939  0.45227060    -0.80700
C110        C  0.00574310  0.22369224  0.43074527     1.09000
C111        C  0.43399227  0.29081291  0.01590678     1.08900
C112        C  0.43260013  0.21323005  0.01530286     1.09100
C113        C  0.99497461  0.32530162  0.40936479     1.08900
O114        O  0.05283570  0.33664065  0.44800895    -0.80700
O115        O  0.50349398  0.25204299  0.08240388    -0.80700
O116        O  0.04938007  0.27854568  0.02773148    -0.80700
O117        O  0.99285426  0.34756128  0.03231894    -0.80600
O118        O  0.50659206  0.32143786  0.08171683    -0.80700
O119        O  0.05897081  0.28477323  0.45749021    -0.80700
O120        O  0.04170168  0.33727989  0.01661044    -0.80600
O121        O  0.49575753  0.21279409  0.03829770    -0.81600
Co122      Co  0.02302466  0.28942932  0.43541061     1.51500
Co123      Co  0.47791563  0.27382383  0.05652875     1.51700
Co124      Co  0.49756453  0.24677413  0.00659875     1.51600
Co125      Co  0.99547979  0.31518239  0.00355375     1.51500
O126        O  0.49444688  0.28251795  0.98894095    -1.42600
C127        C  0.06042713  0.34882883  0.48415357     1.09000
C128        C  0.49995042  0.22332017  0.07524832     1.09100
C129        C  0.06938286  0.28684898  0.49440976     1.09000
C130        C  0.50465006  0.34758632  0.07490931     1.09000
O131        O  0.20010972  0.29251497  0.44634160    -0.80700
O132        O  0.27173323  0.31221624  0.09661941    -0.80700
O133        O  0.19418776  0.21283613  0.03743983    -0.80700
O134        O  0.26735842  0.34759238  0.01824333    -0.80600
O135        O  0.21174985  0.24902012  0.08788590    -0.80800
O136        O  0.25671168  0.34445420  0.45324328    -0.80700
O137        O  0.31130392  0.33880355  0.05224696    -0.80700
O138        O  0.18123304  0.25399240  0.00566486    -0.80700
C139        C  0.18071196  0.27817256  0.47569394     1.09000
C140        C  0.29992497  0.33624740  0.08856065     1.08900
C141        C  0.19067656  0.22122813  0.07353263     1.09100
C142        C  0.26011188  0.35652842  0.48907986     1.08900
O143        O  0.28975026  0.31465646  0.41777725    -0.80700
O144        O  0.25001564  0.22655047  0.04767581    -0.80700
O145        O  0.18646243  0.21412891  0.44559238    -0.80700
O146        O  0.30425145  0.29506412  0.98684758    -0.80600
O147        O  0.30338176  0.28359438  0.05342377    -0.80700
O148        O  0.22584413  0.25438256  0.40889596    -0.80700
O149        O  0.31560987  0.35445156  0.46149212    -0.80600
O150        O  0.24676085  0.23178628  0.98005076    -0.80700
Co151      Co  0.24395500  0.29924567  0.43905318     1.51500
Co152      Co  0.25784625  0.26918576  0.06827664     1.51700
Co153      Co  0.21425907  0.24410802  0.99012209     1.51600
Co154      Co  0.28503801  0.32141755  0.00017095     1.51500
O155        O  0.24548269  0.28413371  0.01384905    -1.42600
C156        C  0.31299480  0.34357217  0.42546255     1.09000
C157        C  0.25382022  0.21982083  0.01069816     1.09100
C158        C  0.20003151  0.22568132  0.41070546     1.09000
C159        C  0.31481280  0.28622900  0.01703191     1.09000
C160        C  0.12473941  0.31114370  0.46858207    -0.21800
C161        C  0.10191675  0.29239785  0.49920334    -0.09900
C162        C  0.10478900  0.26993921  0.03025813     0.29000
C163        C  0.13017718  0.26448465  0.02393210    -0.21800
C164        C  0.15500981  0.28497461  0.48537182    -0.09900
C165        C  0.15111735  0.30753488  0.46158818     0.29000
F166        F  0.17161742  0.32475132  0.43004470    -0.20400
H167        H  0.12075354  0.32677585  0.44784199     0.17400
H168        H  0.13267068  0.24791736  0.04466600     0.17400
F169        F  0.08330876  0.25341837  0.06120411    -0.20400
C170        C  0.34872762  0.26493960  0.04232846    -0.21800
C171        C  0.34197005  0.28135113  0.01119436    -0.09900
C172        C  0.35922190  0.28630275  0.47333094     0.29000
C173        C  0.38851982  0.28740743  0.47393280    -0.21800
C174        C  0.40098572  0.28402210  0.01159383    -0.09900
C175        C  0.37797272  0.26605547  0.04252988     0.29000
F176        F  0.38421532  0.25092277  0.07411576    -0.20400
H177        H  0.33199960  0.25253937  0.06770937     0.17400
H178        H  0.40463939  0.29823088  0.44757793     0.17400
F179        F  0.35183053  0.29865098  0.43956599    -0.20400
C180        C  0.24670736  0.42087486  0.04101792    -0.21800
C181        C  0.24246101  0.43569499  0.00559872    -0.09900
C182        C  0.23732264  0.42110042  0.96635572     0.29000
C183        C  0.24562334  0.39556940  0.46034369    -0.21800
C184        C  0.25469705  0.38359403  0.49482259    -0.09900
C185        C  0.25943928  0.39839009  0.53397113     0.29000
F186        F  0.26835001  0.38767118  0.56798510    -0.20400
H187        H  0.25043558  0.43179957  0.07158506     0.17400
H188        H  0.24153142  0.38437923  0.42992343     0.17400
F189        F  0.23190611  0.43443923  0.93193729    -0.20400
C190        C  0.26806706  0.15753251  0.46204644    -0.21800
C191        C  0.26112248  0.13700355  0.49697329    -0.09900
C192        C  0.26854816  0.15195701  0.03461068     0.29000
C193        C  0.26820737  0.18060678  0.03915787    -0.21800
C194        C  0.26333266  0.19560818  0.00422300    -0.09900
C195        C  0.26741570  0.18608359  0.46544339     0.29000
F196        F  0.27219184  0.20451564  0.43073955    -0.20400
H197        H  0.27173677  0.15043103  0.43149313     0.17400
H198        H  0.26941622  0.18968134  0.07039507     0.17400
F199        F  0.27097442  0.13676451  0.06926131    -0.20400
C200        C  0.10754078  0.38681821  0.02976419    -0.21800
C201        C  0.09063017  0.37911476  0.49134562    -0.09900
C202        C  0.10191977  0.40437599  0.46187099     0.29000
C203        C  0.12883234  0.43437563  0.47095044    -0.21800
C204        C  0.14268934  0.44310668  0.00974112    -0.09900
C205        C  0.13398926  0.41729801  0.03810610     0.29000
F206        F  0.15069775  0.42145882  0.07406564    -0.20400
H207        H  0.10073718  0.36728182  0.05217315     0.17400
H208        H  0.13682734  0.45372167  0.44800015     0.17400
F209        F  0.08599674  0.40059293  0.42528590    -0.20400
C210        C  0.34978476  0.14229107  0.03390847    -0.21800
C211        C  0.34258769  0.13044907  0.48868197    -0.09900
C212        C  0.36427841  0.14535337  0.45552687     0.29000
C213        C  0.39010261  0.17646438  0.96698548    -0.21800
C214        C  0.39974224  0.18703675  0.00804523    -0.09900
C215        C  0.37873698  0.17080796  0.04141786     0.29000
F216        F  0.38705872  0.18110915  0.08138144    -0.20400
H217        H  0.33451402  0.12902825  0.06018351     0.17400
H218        H  0.40570343  0.18931954  0.94077516     0.17400
F219        F  0.35744526  0.13277600  0.41641270    -0.20400
C220        C  0.37103245  0.07134632  0.16296367    -0.21800
C221        C  0.38030306  0.04773396  0.16696242    -0.09900
C222        C  0.36850924  0.02288800  0.13723480     0.29000
C223        C  0.34628205  0.02040740  0.10664828    -0.21800
C224        C  0.33451604  0.04203576  0.10555228    -0.09900
C225        C  0.34788605  0.06816244  0.13338203     0.29000
F226        F  0.33819479  0.09021160  0.13257965    -0.20400
H227        H  0.37942643  0.09063258  0.18570296     0.17400
H228        H  0.33679855  0.00029151  0.08505306     0.17400
F229        F  0.37579344  0.99908816  0.14039538    -0.20400
C230        C  0.34234248  0.02571104  0.39216761    -0.21800
C231        C  0.31284239  0.02361871  0.38260000    -0.09900
C232        C  0.30214585  0.01741446  0.34084143     0.29000
C233        C  0.32178510  0.01647397  0.30933958    -0.21800
C234        C  0.35309143  0.02235370  0.31801076    -0.09900
C235        C  0.36176556  0.02422900  0.36071742     0.29000
F236        F  0.38904118  0.02470775  0.37250027    -0.20400
H237        H  0.35071014  0.02889895  0.42421676     0.17400
H238        H  0.31215692  0.01133408  0.27796685     0.17400
F239        F  0.27302179  0.01311017  0.32994367    -0.20400
C240        C  0.32945216  0.39062622  0.18547765    -0.21800
C241        C  0.36344062  0.40649625  0.18173134    -0.09900
C242        C  0.37589078  0.40054244  0.14560837     0.29000
C243        C  0.35501397  0.37828688  0.11545783    -0.21800
C244        C  0.32111174  0.36092766  0.12060701    -0.09900
C245        C  0.30862952  0.36792260  0.15584677     0.29000
F246        F  0.27633260  0.35285519  0.16181402    -0.20400
H247        H  0.31881189  0.39503738  0.21242512     0.17400
H248        H  0.36559019  0.37372979  0.08855882     0.17400
F249        F  0.40817927  0.41458732  0.14060055    -0.20400
C250        C  0.36898987  0.42130118  0.36673663    -0.21800
C251        C  0.38037225  0.41039844  0.33423905    -0.09900
C252        C  0.37230093  0.37738820  0.33530265     0.29000
C253        C  0.34991941  0.35529346  0.36415504    -0.21800
C254        C  0.33667971  0.36593908  0.39425300    -0.09900
C255        C  0.34786006  0.39952712  0.39665309     0.29000
F256        F  0.33712769  0.41130456  0.42699061    -0.20400
H257        H  0.37503975  0.44624205  0.36867408     0.17400
H258        H  0.34293052  0.32994387  0.36290736     0.17400
F259        F  0.38394115  0.36583309  0.30592229    -0.20400
C260        C  0.02785472  0.41799983  0.13885898    -0.21800
C261        C  0.51743788  0.41870137  0.16760123    -0.09900
C262        C  0.49364422  0.40859942  0.13657847     0.29000
C263        C  0.49020926  0.38573411  0.10679553    -0.21800
C264        C  0.50999386  0.37192547  0.10742316    -0.09900
C265        C  0.02891698  0.39503585  0.11277519     0.29000
F266        F  0.05781951  0.39946405  0.10090665    -0.20400
H267        H  0.05016884  0.43719852  0.15203989     0.17400
H268        H  0.47095243  0.37768947  0.08403643     0.17400
F269        F  0.47188141  0.41850331  0.13713734    -0.20400
C270        C  0.99453708  0.35462883  0.29749523    -0.21800
C271        C  0.99423913  0.38347350  0.30468774    -0.09900
C272        C  0.99293913  0.39177514  0.34667138     0.29000
C273        C  0.99226148  0.37231643  0.37987839    -0.21800
C274        C  0.99288211  0.34381638  0.37283694    -0.09900
C275        C  0.99391568  0.33506270  0.33107241     0.29000
F276        F  0.50754279  0.40319698  0.42974206    -0.20400
H277        H  0.50226117  0.43239358  0.36662549     0.17400
H278        H  0.99161075  0.37992284  0.41144559     0.17400
F279        F  0.99255521  0.41920207  0.35576336    -0.20400
C280        C  0.14872964  0.01863431  0.18647949    -0.21800
C281        C  0.12863723  0.03215286  0.18419227    -0.09900
C282        C  0.13038966  0.04949911  0.14762213     0.29000
C283        C  0.15243106  0.05420075  0.11550367    -0.21800
C284        C  0.17350461  0.04187796  0.11891269    -0.09900
C285        C  0.17086366  0.02356289  0.15479612     0.29000
F286        F  0.19228228  0.51552714  0.16366827    -0.20400
H287        H  0.15126224  0.51105933  0.21814385     0.17400
H288        H  0.15294821  0.06751773  0.08769832     0.17400
F289        F  0.11134261  0.06247719  0.14318093    -0.20400
C290        C  0.13666615  0.05881890  0.36385348    -0.21800
C291        C  0.12009610  0.03140848  0.33809114    -0.09900
C292        C  0.12557308  0.00527799  0.34427481     0.29000
C293        C  0.14837335  0.00754955  0.37310617    -0.21800
C294        C  0.16565783  0.03540586  0.39722208    -0.09900
C295        C  0.15900010  0.06066005  0.39339944     0.29000
F296        F  0.17581958  0.08818921  0.41611345    -0.20400
H297        H  0.13422656  0.07983464  0.35989569     0.17400
H298        H  0.15297581  0.98773192  0.37604391     0.17400
F299        F  0.11067680  0.97843887  0.31992989    -0.20400
C300        C  0.14156583  0.20659591  0.11623887    -0.21800
C301        C  0.16212335  0.19760092  0.09797260    -0.09900
C302        C  0.15427865  0.16502036  0.10141585     0.29000
C303        C  0.12901874  0.14321338  0.12737827    -0.21800
C304        C  0.11110040  0.15340141  0.15017697    -0.09900
C305        C  0.11551198  0.18431726  0.14093222     0.29000
F306        F  0.09828089  0.19485857  0.16193758    -0.20400
H307        H  0.14634399  0.23115977  0.11263280     0.17400
H308        H  0.12668296  0.12000444  0.13435203     0.17400
F309        F  0.17304195  0.15511748  0.08304150    -0.20400
C310        C  0.14488892  0.15587561  0.33966140    -0.21800
C311        C  0.15016762  0.17085373  0.29995751    -0.09900
C312        C  0.17539817  0.20371148  0.29663511     0.29000
C313        C  0.19295784  0.22079861  0.33232033    -0.21800
C314        C  0.18592499  0.20598559  0.37209420    -0.09900
C315        C  0.16229976  0.17286733  0.37494673     0.29000
F316        F  0.15500853  0.15691549  0.41221019    -0.20400
H317        H  0.12588394  0.13085601  0.34384135     0.17400
H318        H  0.21101478  0.24628083  0.32907957     0.17400
F319        F  0.18244926  0.22038645  0.26011371    -0.20400
C320        C  0.47268949  0.14649493  0.14001263    -0.21800
C321        C  0.49976210  0.15413860  0.16470096    -0.09900
C322        C  0.03274969  0.20286728  0.18987655     0.29000
C323        C  0.03065643  0.22215453  0.15771076    -0.21800
C324        C  0.50002063  0.20104601  0.10825127    -0.09900
C325        C  0.47293109  0.16934857  0.11180062     0.29000
F326        F  0.44590151  0.16096729  0.08924039    -0.20400
H327        H  0.45034388  0.12381245  0.14522862     0.17400
H328        H  0.04535416  0.24834307  0.15947997     0.17400
F329        F  0.05410909  0.21831646  0.22127729    -0.20400
C330        C  0.48684326  0.19666418  0.30928541    -0.21800
C331        C  0.00377775  0.15550976  0.34371577    -0.09900
C332        C  0.02648531  0.16725411  0.37674140     0.29000
C333        C  0.02560682  0.18790888  0.40659807    -0.21800
C334        C  0.00293560  0.19787196  0.40362235    -0.09900
C335        C  0.48832290  0.21644035  0.34181237     0.29000
F336        F  0.48220344  0.24054465  0.33290988    -0.20400
H337        H  0.48023546  0.20125454  0.27888294     0.17400
H338        H  0.04401264  0.19775938  0.43064302     0.17400
F339        F  0.05063773  0.16084087  0.37978482    -0.20400
C340        C  0.00353763  0.13892207  0.80530748     0.86000
C341        C  0.02872053  0.12968147  0.80050799    -0.54300
C342        C  0.03170294  0.11983704  0.76150320     0.08900
C343        C  0.49918464  0.11285285  0.72869672     0.19800
C344        C  0.49772129  0.16265591  0.74167785    -0.55000
C345        C  0.00526942  0.14818184  0.72939810     0.09000
C346        C  0.46495899  0.11557330  0.78271318    -0.54500
C347        C  0.46640016  0.09459770  0.75509348     0.09600
H348        H  0.04291889  0.13007875  0.82702636     0.14100
H349        H  0.50142399  0.09780633  0.70433951    -0.00200
H350        H  0.49944086  0.18559104  0.73444988     0.14400
H351        H  0.44420732  0.10979454  0.80183496     0.14200
C352        C  0.12470651  0.15304438  0.76851234     0.86000
C353        C  0.12144324  0.12003305  0.76388554    -0.54300
C354        C  0.09566770  0.09699000  0.74099609     0.08900
C355        C  0.07866163  0.11322159  0.71673231     0.19800
C356        C  0.13068912  0.16550645  0.72429127    -0.55000
C357        C  0.10750973  0.14556648  0.69632895     0.09000
C358        C  0.09116513  0.14704526  0.77773557    -0.54500
C359        C  0.06595241  0.12626032  0.75193524     0.09600
H360        H  0.13756597  0.11469032  0.78141119     0.14100
H361        H  0.05986854  0.09684474  0.69426307    -0.00200
H362        H  0.15211457  0.18758094  0.71434807     0.14400
H363        H  0.08908112  0.16112320  0.80246728     0.14200
C364        C  0.10450410  0.03475427  0.79890718     0.86000
C365        C  0.07355160  0.00374703  0.79328154    -0.54300
C366        C  0.05808973  0.99909252  0.75570676     0.08900
C367        C  0.07703331  0.03122170  0.72657487     0.19800
C368        C  0.12525042  0.03893215  0.76061343    -0.55000
C369        C  0.11201865  0.03743749  0.72255019     0.09000
C370        C  0.09273362  0.05858299  0.79402556    -0.54500
C371        C  0.08257357  0.06116052  0.75445482     0.09600
H372        H  0.05830336  0.48575776  0.81934622     0.14100
H373        H  0.06513167  0.02944229  0.69613226    -0.00200
H374        H  0.14912381  0.04218870  0.76399000     0.14400
H375        H  0.09528589  0.07505868  0.81859504     0.14200
C376        C  0.99797714  0.40538465  0.76757282     0.86000
C377        C  0.46491478  0.41247407  0.76440435    -0.54300
C378        C  0.46398306  0.43429432  0.73686470     0.08900
C379        C  0.99776168  0.44947276  0.71711454     0.19800
C380        C  0.99699940  0.39704999  0.72224083    -0.55000
C381        C  0.51127519  0.43080790  0.70673851     0.09000
C382        C  0.02776550  0.43898979  0.76991275    -0.54500
C383        C  0.02858365  0.46346958  0.74578631     0.09600
H384        H  0.44362335  0.39238041  0.77871349     0.14100
H385        H  0.99774381  0.46771412  0.69552093    -0.00200
H386        H  0.99750381  0.37601910  0.71126401     0.14400
H387        H  0.04772789  0.44218852  0.78921214     0.14200
C388        C  0.39103611  0.42837034  0.79497314     0.86000
C389        C  0.40194106  0.46410118  0.79262615    -0.54300
C390        C  0.41188441  0.47877987  0.75396143     0.08900
C391        C  0.41704833  0.45560388  0.72282783     0.19800
C392        C  0.36939186  0.41263289  0.75702560    -0.55000
C393        C  0.38220425  0.42566079  0.71923719     0.09000
C394        C  0.42203950  0.42987994  0.78657615    -0.54500
C395        C  0.43663982  0.44179872  0.74823952     0.09600
H396        H  0.39921273  0.47660688  0.81877966     0.14100
H397        H  0.42795189  0.46696871  0.69231643    -0.00200
H398        H  0.34549636  0.39127650  0.76012395     0.14400
H399        H  0.43194132  0.42245839  0.81192004     0.14200
C400        C  0.38105106  0.02931856  0.78349432     0.86000
C401        C  0.41791134  0.05064281  0.79105653    -0.54300
C402        C  0.43768976  0.05905955  0.75655589     0.08900
C403        C  0.41819837  0.03642947  0.71961034     0.19800
C404        C  0.37435915  0.04360244  0.74522456    -0.55000
C405        C  0.39163331  0.04596448  0.71042515     0.09000
C406        C  0.37644821  0.99756071  0.76714767    -0.54500
C407        C  0.39975025  0.00045084  0.73948511     0.09600
H408        H  0.42831955  0.06081571  0.82098091     0.14100
H409        H  0.43320298  0.03891267  0.69213002    -0.00200
H410        H  0.35469679  0.04842621  0.74493944     0.14400
H411        H  0.36091442  0.48107201  0.78900013     0.14200
O412        O  0.25178352  0.09274324  0.95354037    -0.80700
O413        O  0.28539001  0.04381874  0.58014441    -0.80700
O414        O  0.18150233  0.04188379  0.54463994    -0.80700
O415        O  0.30239720  0.07833039  0.01726938    -0.80600
O416        O  0.21891900  0.04256801  0.58612334    -0.80800
O417        O  0.30357622  0.08769293  0.95019364    -0.80700
O418        O  0.31554808  0.03438227  0.53641076    -0.80700
O419        O  0.24408017  0.08407297  0.52149271    -0.80700
C420        C  0.25474965  0.10404305  0.99005197     1.09000
C421        C  0.31102623  0.04161871  0.57277291     1.08900
C422        C  0.19189684  0.04260034  0.58115568     1.09100
C423        C  0.31421657  0.09743105  0.98667573     1.08900
O424        O  0.26888247  0.02541261  0.90879341    -0.80700
O425        O  0.19198663  0.47579141  0.54789268    -0.80700
O426        O  0.19510335  0.05075128  0.96163816    -0.80700
O427        O  0.25925511  0.48841457  0.47638075    -0.80600
O428        O  0.24768285  0.47881344  0.54258332    -0.80700
O429        O  0.21260737  0.03027929  0.91457618    -0.80700
O430        O  0.30790620  0.03875479  0.95359081    -0.80600
O431        O  0.17895925  0.49508570  0.49537391    -0.80700
Co432      Co  0.25772300  0.05641675  0.93521998     1.51500
Co433      Co  0.23691288  0.51251683  0.55658386     1.51700
Co434      Co  0.21156677  0.03882808  0.51061270     1.51600
Co435      Co  0.28239741  0.03414789  0.50461103     1.51500
O436        O  0.24315056  0.03038806  0.48970890    -1.42600
C437        C  0.29656223  0.02962644  0.91706640     1.09000
C438        C  0.17328149  0.47151076  0.51799043     1.09100
C439        C  0.19265485  0.03856627  0.92583944     1.09000
C440        C  0.25059217  0.46935313  0.50705688     1.09000
O441        O  0.99781998  0.24515392  0.91839889    -0.80700
O442        O  0.44120874  0.27922572  0.54728381    -0.80700
O443        O  0.45670014  0.21879588  0.48501291    -0.80700
O444        O  0.00217237  0.33969503  0.94900167    -0.80600
O445        O  0.44293804  0.22653594  0.54536709    -0.80800
O446        O  0.99189430  0.29932399  0.90823367    -0.80700
O447        O  0.45151327  0.30096107  0.48628319    -0.80700
O448        O  0.50623110  0.22856143  0.95548759    -0.80700
C449        C  0.00563495  0.22510864  0.93139479     1.09000
C450        C  0.43145915  0.28548655  0.51407282     1.08900
C451        C  0.43544526  0.21129046  0.51161254     1.09100
C452        C  0.99529343  0.32706849  0.91280559     1.08900
O453        O  0.05288520  0.33794066  0.95055714    -0.80700
O454        O  0.50569796  0.25266551  0.58002863    -0.80700
O455        O  0.05069307  0.27979764  0.52514751    -0.80700
O456        O  0.99158738  0.34650066  0.52736771    -0.80600
O457        O  0.50420276  0.31961028  0.58046615    -0.80700
O458        O  0.05863388  0.28573386  0.96022000    -0.80700
O459        O  0.04088316  0.33612371  0.51374044    -0.80600
O460        O  0.49986415  0.21426517  0.53574846    -0.81600
Co461      Co  0.02297803  0.29076452  0.93789578     1.51500
Co462      Co  0.47801765  0.27212711  0.55437509     1.51700
Co463      Co  0.50007528  0.24775555  0.50396687     1.51600
Co464      Co  0.99466508  0.31383468  0.49985017     1.51500
O465        O  0.49499322  0.28256476  0.48702905    -1.42600
C466        C  0.06061338  0.35037153  0.98653004     1.09000
C467        C  0.50350947  0.22453725  0.57288126     1.09100
C468        C  0.06833970  0.28612584  0.99723838     1.09000
C469        C  0.50031132  0.34466171  0.57435631     1.09000
O470        O  0.19468557  0.28382475  0.95075297    -0.80700
O471        O  0.27387865  0.31455756  0.59160427    -0.80700
O472        O  0.19262883  0.21559850  0.53151351    -0.80700
O473        O  0.26972014  0.34636569  0.51883459    -0.80600
O474        O  0.21089922  0.25308397  0.58026017    -0.80800
O475        O  0.24661433  0.33934596  0.95693084    -0.80700
O476        O  0.31822125  0.33915502  0.55475243    -0.80700
O477        O  0.18352082  0.25788605  0.49685089    -0.80700
C478        C  0.17660838  0.27175514  0.98175307     1.09000
C479        C  0.30379424  0.33692605  0.58823965     1.08900
C480        C  0.18972852  0.22468027  0.56760887     1.09100
C481        C  0.25322928  0.35420606  0.99088105     1.08900
O482        O  0.28785289  0.31751746  0.92543904    -0.80700
O483        O  0.24683957  0.22697644  0.54317671    -0.80700
O484        O  0.18602641  0.21213362  0.95180081    -0.80700
O485        O  0.30560220  0.29407187  0.48498465    -0.80600
O486        O  0.30215022  0.28086751  0.55053184    -0.80700
O487        O  0.22643910  0.25190637  0.91626942    -0.80700
O488        O  0.31802275  0.35673033  0.97029984    -0.80600
O489        O  0.24600791  0.23121627  0.47505249    -0.80700
Co490      Co  0.24030851  0.29581560  0.94644350     1.51500
Co491      Co  0.25710174  0.27058441  0.56230631     1.51700
Co492      Co  0.21529394  0.24599450  0.48316542     1.51600
Co493      Co  0.29195629  0.32332459  0.50478841     1.51500
O494        O  0.24842525  0.28661793  0.50461590    -1.42600
C495        C  0.31245995  0.34620541  0.93324553     1.09000
C496        C  0.25139273  0.21928493  0.50720939     1.09100
C497        C  0.19971775  0.22388286  0.91701128     1.09000
C498        C  0.31392476  0.28274904  0.51457883     1.09000
C499        C  0.12279154  0.30672245  0.97071998    -0.21800
C500        C  0.10008822  0.28984500  0.00215967    -0.09900
C501        C  0.10758205  0.27251000  0.52600931     0.29000
C502        C  0.13394798  0.26874722  0.51892986    -0.21800
C503        C  0.15104730  0.27893443  0.98979149    -0.09900
C504        C  0.14792312  0.30119606  0.96423191     0.29000
F505        F  0.16814737  0.31657004  0.93171194    -0.20400
H506        H  0.11959659  0.32234453  0.94897546     0.17400
H507        H  0.13696438  0.25192721  0.53850933     0.17400
F508        F  0.08601178  0.25418499  0.55605552    -0.20400
C509        C  0.34686925  0.26091689  0.54203782    -0.21800
C510        C  0.33938752  0.27524662  0.50890816    -0.09900
C511        C  0.36327004  0.29588048  0.97747071     0.29000
C512        C  0.39274781  0.29729517  0.97787753    -0.21800
C513        C  0.39799625  0.27722136  0.50966455    -0.09900
C514        C  0.37600950  0.26178265  0.54250596     0.29000
F515        F  0.38348638  0.24967666  0.57644030    -0.20400
H516        H  0.33119627  0.25104404  0.56896217     0.17400
H517        H  0.40978966  0.31036109  0.95303763     0.17400
F518        F  0.35685988  0.31086994  0.94588509    -0.20400
C519        C  0.25610805  0.42531254  0.53806632    -0.21800
C520        C  0.24858157  0.43814260  0.50319653    -0.09900
C521        C  0.24272476  0.42279871  0.46439197     0.29000
C522        C  0.23899448  0.39321122  0.96219741    -0.21800
C523        C  0.24628430  0.38007744  0.99700026    -0.09900
C524        C  0.24881723  0.39325626  0.03683215     0.29000
F525        F  0.25461494  0.38034345  0.07139439    -0.20400
H526        H  0.26099323  0.43707334  0.56818902     0.17400
H527        H  0.23627189  0.38293926  0.93137870     0.17400
F528        F  0.23478435  0.43442627  0.43036624    -0.20400
C529        C  0.26412433  0.15574181  0.95948758    -0.21800
C530        C  0.26404037  0.13811879  0.99487733    -0.09900
C531        C  0.25797212  0.14750082  0.53650417     0.29000
C532        C  0.25747466  0.17601502  0.53985950    -0.21800
C533        C  0.25991978  0.19423744  0.50399212    -0.09900
C534        C  0.26372907  0.18434329  0.96401295     0.29000
F535        F  0.26109964  0.19930758  0.92925756    -0.20400
H536        H  0.26184561  0.14613646  0.92833416     0.17400
H537        H  0.25274339  0.18243263  0.57025938     0.17400
F538        F  0.25254956  0.12904009  0.57137167    -0.20400
C539        C  0.10681036  0.38396164  0.52952417    -0.21800
C540        C  0.08987055  0.38153417  0.99289168    -0.09900
C541        C  0.09851494  0.40706386  0.96437850     0.29000
C542        C  0.12471129  0.43770291  0.97290127    -0.21800
C543        C  0.14508672  0.43946495  0.50927071    -0.09900
C544        C  0.13407866  0.41384371  0.53840212     0.29000
F545        F  0.14906445  0.41781572  0.57576808    -0.20400
H546        H  0.09812011  0.36462062  0.55260671     0.17400
H547        H  0.13092751  0.45717892  0.95061974     0.17400
F548        F  0.08076738  0.40276178  0.92935665    -0.20400
C549        C  0.35030360  0.14417301  0.52862993    -0.21800
C550        C  0.34152225  0.13009004  0.99315091    -0.09900
C551        C  0.36108472  0.14825034  0.95940082     0.29000
C552        C  0.39430062  0.17231406  0.46320834    -0.21800
C553        C  0.40283850  0.18476918  0.50377900    -0.09900
C554        C  0.38026541  0.17126099  0.53626022     0.29000
F555        F  0.38756657  0.18310381  0.57570470    -0.20400
H556        H  0.33357955  0.13316118  0.55437475     0.17400
H557        H  0.41120504  0.18288016  0.43757058     0.17400
F558        F  0.35341287  0.13779217  0.91939287    -0.20400
C559        C  0.36632728  0.07250374  0.66884860    -0.21800
C560        C  0.37982443  0.05220233  0.66943625    -0.09900
C561        C  0.37376105  0.03210251  0.63479714     0.29000
C562        C  0.35243348  0.03007370  0.60305278    -0.21800
C563        C  0.33603830  0.04749091  0.60521222    -0.09900
C564        C  0.34416000  0.06965162  0.63789503     0.29000
F565        F  0.33034536  0.08813176  0.64042615    -0.20400
H566        H  0.37113803  0.08908378  0.69436228     0.17400
H567        H  0.34727196  0.01322954  0.57775349     0.17400
F568        F  0.38611789  0.01229752  0.63325115    -0.20400
C569        C  0.30437766  0.00863385  0.84764652    -0.21800
C570        C  0.31723091  0.02685378  0.88433918    -0.09900
C571        C  0.35094058  0.04389641  0.88922386     0.29000
C572        C  0.37105236  0.04360688  0.85817546    -0.21800
C573        C  0.35873525  0.02617784  0.82056586    -0.09900
C574        C  0.32469032  0.00796413  0.81647404     0.29000
F575        F  0.31096853  0.99028948  0.78152779    -0.20400
H576        H  0.27855304  0.99504778  0.84289450     0.17400
H577        H  0.39636347  0.05838959  0.86440844     0.17400
F578        F  0.36503420  0.06252999  0.92340701    -0.20400
C579        C  0.32916652  0.39477385  0.68085195    -0.21800
C580        C  0.36308545  0.40871743  0.68090054    -0.09900
C581        C  0.37682002  0.40011280  0.64885146     0.29000
C582        C  0.35713080  0.37684762  0.61932854    -0.21800
C583        C  0.32312909  0.36132751  0.62090087    -0.09900
C584        C  0.30937080  0.37115211  0.65151685     0.29000
F585        F  0.27697461  0.35799666  0.65318461    -0.20400
H586        H  0.31779301  0.40119278  0.70493207     0.17400
H587        H  0.36868415  0.37021682  0.59573505     0.17400
F588        F  0.40904688  0.41233819  0.64773078    -0.20400
C589        C  0.36654419  0.42109452  0.86871736    -0.21800
C590        C  0.37391137  0.40817249  0.83414638    -0.09900
C591        C  0.36240724  0.37430084  0.83434332     0.29000
C592        C  0.34234466  0.35406065  0.86631975    -0.21800
C593        C  0.33455088  0.36715010  0.89992576    -0.09900
C594        C  0.34746770  0.40096125  0.90132839     0.29000
F595        F  0.34032159  0.41453087  0.93342929    -0.20400
H596        H  0.37467481  0.44656021  0.87089846     0.17400
H597        H  0.33295963  0.32816644  0.86484487     0.17400
F598        F  0.36929549  0.36042894  0.80232991    -0.20400
C599        C  0.02909902  0.41537867  0.63827813    -0.21800
C600        C  0.51352054  0.41651569  0.66627044    -0.09900
C601        C  0.48785676  0.40409045  0.63773431     0.29000
C602        C  0.48406138  0.38080499  0.60832614    -0.21800
C603        C  0.50528402  0.36871110  0.60710988    -0.09900
C604        C  0.02912626  0.39247568  0.61108609     0.29000
F605        F  0.05728484  0.39405211  0.60191686    -0.20400
H606        H  0.05134748  0.43232249  0.65394210     0.17400
H607        H  0.46361833  0.37122452  0.58725762     0.17400
F608        F  0.46496683  0.41235523  0.64040761    -0.20400
C609        C  0.00040747  0.39517593  0.84460771    -0.21800
C610        C  0.99763783  0.38335569  0.80352062    -0.09900
C611        C  0.99291141  0.35186430  0.79917780     0.29000
C612        C  0.99136505  0.33353398  0.83476411    -0.21800
C613        C  0.99447266  0.34580499  0.87553813    -0.09900
C614        C  0.99907152  0.37705253  0.87983537     0.29000
F615        F  0.52541991  0.40852232  0.92667425    -0.20400
H616        H  0.52166691  0.43883610  0.86403025     0.17400
H617        H  0.98798462  0.30961777  0.83025511     0.17400
F618        F  0.98912622  0.33807160  0.76126447    -0.20400
C619        C  0.11819698  0.02212652  0.64857941    -0.21800
C620        C  0.13177343  0.04210643  0.68354104    -0.09900
C621        C  0.16568913  0.06402004  0.68325080     0.29000
C622        C  0.18534009  0.06388360  0.65086895    -0.21800
C623        C  0.17182727  0.04300582  0.61677671    -0.09900
C624        C  0.13778696  0.02273521  0.61555490     0.29000
F625        F  0.12302035  0.50833607  0.58044528    -0.20400
H626        H  0.09302685  0.50993911  0.64625909     0.17400
H627        H  0.21111061  0.08054187  0.65214201     0.17400
F628        F  0.18007552  0.08590229  0.71440792    -0.20400
C629        C  0.12931343  0.00876566  0.84130158    -0.21800
C630        C  0.12293094  0.03443965  0.83791480    -0.09900
C631        C  0.13868815  0.06052063  0.86615658     0.29000
C632        C  0.16023934  0.06075782  0.89578197    -0.21800
C633        C  0.16761826  0.03598036  0.89700653    -0.09900
C634        C  0.15163845  0.00969087  0.86992989     0.29000
F635        F  0.15789408  0.98510566  0.87072346    -0.20400
H636        H  0.11824410  0.98862015  0.81974522     0.17400
H637        H  0.17261732  0.08140249  0.91640789     0.17400
F638        F  0.13562306  0.08699917  0.86396715    -0.20400
C639        C  0.14256956  0.20963992  0.61541401    -0.21800
C640        C  0.16253747  0.20093262  0.59474374    -0.09900
C641        C  0.15610063  0.16882132  0.59982371     0.29000
C642        C  0.13261636  0.14730286  0.62838131    -0.21800
C643        C  0.11461663  0.15702316  0.65203417    -0.09900
C644        C  0.11840183  0.18774306  0.64291947     0.29000
F645        F  0.10195672  0.19838290  0.66552919    -0.20400
H646        H  0.14639366  0.23382326  0.61138207     0.17400
H647        H  0.13118360  0.12445115  0.63552805     0.17400
F648        F  0.17461737  0.15919801  0.58014736    -0.20400
C649        C  0.14120203  0.15712685  0.84422899    -0.21800
C650        C  0.14804549  0.17251403  0.80466247    -0.09900
C651        C  0.17418982  0.20495790  0.80233647     0.29000
C652        C  0.19214734  0.22086876  0.83844313    -0.21800
C653        C  0.18454604  0.20530337  0.87779040    -0.09900
C654        C  0.15905948  0.17285051  0.87988250     0.29000
F655        F  0.15052565  0.15629703  0.91673017    -0.20400
H656        H  0.12100066  0.13262187  0.84782111     0.17400
H657        H  0.21113213  0.24606072  0.83588905     0.17400
F658        F  0.18162422  0.22240513  0.76640963    -0.20400
C659        C  0.48210646  0.14896823  0.63901286    -0.21800
C660        C  0.50725985  0.16052422  0.66834437    -0.09900
C661        C  0.02101928  0.16857933  0.65351215     0.29000
C662        C  0.02370804  0.18981180  0.62064447    -0.21800
C663        C  0.50518071  0.20320621  0.60632412    -0.09900
C664        C  0.48127242  0.16980234  0.60811977     0.29000
F665        F  0.45579690  0.15769840  0.58148434    -0.20400
H666        H  0.46171819  0.12449501  0.64208770     0.17400
H667        H  0.03482435  0.18906137  0.59172556     0.17400
F668        F  0.03349199  0.14911547  0.64830368    -0.20400
C669        C  0.48454237  0.19398520  0.81270843    -0.21800
C670        C  0.00302588  0.15591656  0.84512236    -0.09900
C671        C  0.03119833  0.17636557  0.86838346     0.29000
C672        C  0.03104144  0.19738250  0.89820485    -0.21800
C673        C  0.00380270  0.20013350  0.90359276    -0.09900
C674        C  0.48509954  0.21344436  0.84499465     0.29000
F675        F  0.48085061  0.23864638  0.83519334    -0.20400
H676        H  0.47955841  0.19951263  0.78186236     0.17400
H677        H  0.05304173  0.21325787  0.91511863     0.17400
F678        F  0.05977477  0.17866231  0.86019649    -0.20400
C679        C  0.00636421  0.64032817  0.30686996     0.86000
C680        C  0.03125061  0.63064204  0.30232554    -0.54300
C681        C  0.03382822  0.62029773  0.26352008     0.08900
C682        C  0.49995534  0.61284369  0.23310820     0.19800
C683        C  0.50624368  0.65985002  0.26918414    -0.55000
C684        C  0.00903012  0.64941891  0.23090313     0.09000
C685        C  0.47031833  0.60604646  0.29797063    -0.54500
C686        C  0.46688844  0.59251345  0.25936440     0.09600
H687        H  0.04527882  0.63070106  0.32880150     0.14100
H688        H  0.49931304  0.60209141  0.20233087    -0.00200
H689        H  0.51078099  0.68423111  0.27415004     0.14400
H690        H  0.45367686  0.59469607  0.32368673     0.14200
C691        C  0.12686116  0.65332500  0.26810065     0.86000
C692        C  0.12349592  0.62027232  0.26188451    -0.54300
C693        C  0.09712622  0.59759560  0.23919351     0.08900
C694        C  0.07988673  0.61429180  0.21688935     0.19800
C695        C  0.13196958  0.66633356  0.22422216    -0.55000
C696        C  0.10823938  0.64687388  0.19668254     0.09000
C697        C  0.09342465  0.64695963  0.27909381    -0.54500
C698        C  0.06785496  0.62664735  0.25343939     0.09600
H699        H  0.13927291  0.61423364  0.27902416     0.14100
H700        H  0.06075201  0.59834777  0.19450752    -0.00200
H701        H  0.15339828  0.68826575  0.21396418     0.14400
H702        H  0.09170126  0.66046827  0.30486154     0.14200
C703        C  0.10139146  0.53415970  0.30065209     0.86000
C704        C  0.06967619  0.50389407  0.29474276    -0.54300
C705        C  0.05527319  0.49936916  0.25632920     0.08900
C706        C  0.07586300  0.53079131  0.22680943     0.19800
C707        C  0.12253560  0.53704106  0.26324865    -0.55000
C708        C  0.10985449  0.53432736  0.22443556     0.09000
C709        C  0.09158076  0.55928439  0.29379639    -0.54500
C710        C  0.08252790  0.56177850  0.25357345     0.09600
H711        H  0.05927668  0.98611424  0.32063042     0.14100
H712        H  0.06449518  0.52891520  0.19594141    -0.00200
H713        H  0.14672792  0.54142026  0.26796663     0.14400
H714        H  0.09501612  0.57679969  0.31727470     0.14200
C715        C  0.99476543  0.90452388  0.26852567     0.86000
C716        C  0.46378255  0.90776171  0.25923926    -0.54300
C717        C  0.46516140  0.93249741  0.23511390     0.08900
C718        C  0.99717712  0.94982894  0.21764832     0.19800
C719        C  0.99623202  0.89742477  0.22321737    -0.55000
C720        C  0.51240939  0.93018890  0.20355128     0.09000
C721        C  0.02420342  0.93818575  0.27343761    -0.54500
C722        C  0.02645332  0.96301669  0.24854258     0.09600
H723        H  0.44161318  0.88855239  0.27308159     0.14100
H724        H  0.99826201  0.96850984  0.19585585    -0.00200
H725        H  0.99692775  0.87653101  0.21217884     0.14400
H726        H  0.04320444  0.94071501  0.29410933     0.14200
C727        C  0.39713920  0.92979784  0.29907010     0.86000
C728        C  0.40694638  0.96528038  0.29487138    -0.54300
C729        C  0.41469857  0.97831588  0.25488494     0.08900
C730        C  0.41950084  0.95462242  0.22486221     0.19800
C731        C  0.37422279  0.91211405  0.26263318    -0.55000
C732        C  0.38510980  0.92433169  0.22398569     0.09000
C733        C  0.42846841  0.93221770  0.28937088    -0.54500
C734        C  0.44071216  0.94262685  0.24973803     0.09600
H735        H  0.40406461  0.97822028  0.32044946     0.14100
H736        H  0.42915074  0.96521090  0.19359895    -0.00200
H737        H  0.35072510  0.89051276  0.26748632     0.14400
H738        H  0.43954558  0.92471095  0.31314110     0.14200
C739        C  0.37370020  0.53211872  0.26714907     0.86000
C740        C  0.40728942  0.56090156  0.27453578    -0.54300
C741        C  0.43216218  0.56438436  0.24940863     0.08900
C742        C  0.41844884  0.53706003  0.21529565     0.19800
C743        C  0.36691905  0.53658521  0.22273754    -0.55000
C744        C  0.38954351  0.53961811  0.19481238     0.09000
C745        C  0.37680831  0.50227725  0.26536624    -0.54500
C746        C  0.40121143  0.50405569  0.24110169     0.09600
H747        H  0.40950203  0.57859554  0.29713477     0.14100
H748        H  0.43683413  0.53904393  0.19292643    -0.00200
H749        H  0.34561377  0.53697308  0.21289102     0.14400
H750        H  0.36017662  0.97389963  0.28654498     0.14200
O751        O  0.24869129  0.59290757  0.45591102    -0.80700
O752        O  0.28432050  0.54026144  0.07507049    -0.80700
O753        O  0.18286671  0.54557321  0.04738666    -0.80700
O754        O  0.30224812  0.57791192  0.51154701    -0.80600
O755        O  0.21871785  0.54122326  0.08652398    -0.80800
O756        O  0.30198139  0.59082401  0.44672545    -0.80700
O757        O  0.31141449  0.52886235  0.02827364    -0.80700
O758        O  0.24547526  0.58609613  0.02457201    -0.80700
C759        C  0.25159469  0.60334524  0.49284535     1.09000
C760        C  0.30834898  0.53594080  0.06539682     1.08900
C761        C  0.19281822  0.54362557  0.08328505     1.09100
C762        C  0.31399969  0.59858948  0.48298808     1.08900
O763        O  0.26723697  0.52906186  0.40338998    -0.80700
O764        O  0.19106590  0.97765730  0.05107712    -0.80700
O765        O  0.19254032  0.55000469  0.46346101    -0.80700
O766        O  0.26242839  0.98718391  0.98854385    -0.80600
O767        O  0.24381467  0.97629331  0.05088761    -0.80700
O768        O  0.20996307  0.53057058  0.41549275    -0.80700
O769        O  0.31098129  0.54315470  0.43936861    -0.80600
O770        O  0.17860513  0.99651942  0.99753667    -0.80700
Co771      Co  0.25548979  0.55804364  0.43464011     1.51500
Co772      Co  0.23666759  0.01307933  0.05831152     1.51700
Co773      Co  0.21130620  0.54161673  0.01121053     1.51600
Co774      Co  0.27961903  0.53257156  0.99860812     1.51500
O775        O  0.24153894  0.53235937  0.98669362    -1.42600
C776        C  0.29580341  0.53397443  0.40528986     1.09000
C777        C  0.17249180  0.97321833  0.02100136     1.09100
C778        C  0.18972185  0.53820034  0.42741472     1.09000
C779        C  0.24926762  0.96710968  0.01710935     1.09000
O780        O  0.99937264  0.74437397  0.42025385    -0.80700
O781        O  0.44296995  0.78236668  0.05353619    -0.80700
O782        O  0.45941601  0.71446985  0.00233627    -0.80700
O783        O  0.00438414  0.83946757  0.44781673    -0.80600
O784        O  0.44226482  0.72829795  0.05557355    -0.80800
O785        O  0.99379511  0.79881400  0.40734560    -0.80700
O786        O  0.45121390  0.79878122  0.99002785    -0.80700
O787        O  0.51410028  0.72686030  0.46534324    -0.80700
C788        C  0.00751003  0.72472800  0.43387055     1.09000
C789        C  0.43235266  0.78678266  0.01992635     1.08900
C790        C  0.43670316  0.70971482  0.02522054     1.09100
C791        C  0.99665991  0.82639321  0.41191124     1.08900
O792        O  0.05492704  0.83740471  0.44939267    -0.80700
O793        O  0.50623123  0.75619689  0.09173789    -0.80700
O794        O  0.05071331  0.77911703  0.02746357    -0.80700
O795        O  0.99145105  0.84628020  0.03173033    -0.80600
O796        O  0.50748993  0.82322011  0.08044328    -0.80700
O797        O  0.06058272  0.78562822  0.46080927    -0.80700
O798        O  0.04107692  0.83682327  0.01716790    -0.80600
O799        O  0.50710015  0.71858183  0.05254379    -0.81600
Co800      Co  0.02474574  0.79022252  0.43795317     1.51500
Co801      Co  0.47879222  0.77406357  0.06103547     1.51700
Co802      Co  0.50288481  0.74778755  0.01677351     1.51600
Co803      Co  0.99484815  0.81423893  0.00353581     1.51500
O804        O  0.49384274  0.77889175  0.99313847    -1.42600
C805        C  0.06335280  0.84952912  0.48541030     1.09000
C806        C  0.50792304  0.72975861  0.08844205     1.09100
C807        C  0.07070473  0.78784816  0.49799331     1.09000
C808        C  0.50429894  0.84830786  0.07124380     1.09000
O809        O  0.20080831  0.79372237  0.45133883    -0.80700
O810        O  0.27353930  0.81759248  0.09512005    -0.80700
O811        O  0.19428869  0.71784094  0.03456310    -0.80700
O812        O  0.26703342  0.84530816  0.02289997    -0.80600
O813        O  0.21099419  0.75562652  0.08281573    -0.80800
O814        O  0.25679894  0.84540038  0.46057837    -0.80700
O815        O  0.31783405  0.84285092  0.05804155    -0.80700
O816        O  0.18437160  0.75843022  0.99767594    -0.80700
C817        C  0.18167411  0.77973721  0.48091156     1.09000
C818        C  0.30340101  0.84011418  0.09172575     1.08900
C819        C  0.19036410  0.72708157  0.07001282     1.09100
C820        C  0.25862087  0.85606869  0.49705066     1.08900
O821        O  0.29021596  0.81596354  0.42395237    -0.80700
O822        O  0.24842449  0.72990443  0.04886037    -0.80700
O823        O  0.18697036  0.71576028  0.44984366    -0.80700
O824        O  0.30724270  0.79725925  0.99031963    -0.80600
O825        O  0.30300601  0.78475813  0.05626328    -0.80700
O826        O  0.22659865  0.75606405  0.41360118    -0.80700
O827        O  0.31522357  0.85649225  0.46673152    -0.80600
O828        O  0.24892863  0.73382594  0.98057043    -0.80700
Co829      Co  0.24452149  0.80053108  0.44472861     1.51500
Co830      Co  0.25757881  0.77358316  0.06645140     1.51700
Co831      Co  0.21732422  0.74768028  0.98606580     1.51600
Co832      Co  0.29240001  0.82602971  0.00787472     1.51500
O833        O  0.24933548  0.78866324  0.00758866    -1.42600
C834        C  0.31292796  0.84517805  0.43097626     1.09000
C835        C  0.25393335  0.72223781  0.01342625     1.09100
C836        C  0.20061325  0.72746743  0.41505027     1.09000
C837        C  0.31550176  0.78666202  0.02084566     1.09000
C838        C  0.12623626  0.81301758  0.47306216    -0.21800
C839        C  0.10337154  0.79424863  0.50357291    -0.09900
C840        C  0.10712124  0.77116322  0.02610364     0.29000
C841        C  0.13354103  0.76754766  0.01869620    -0.21800
C842        C  0.15643305  0.78700640  0.49067499    -0.09900
C843        C  0.15264578  0.80946541  0.46648713     0.29000
F844        F  0.17312500  0.82642337  0.43479780    -0.20400
H845        H  0.12214206  0.82836692  0.45192329     0.17400
H846        H  0.13655289  0.75054290  0.03789191     0.17400
F847        F  0.08540858  0.75232939  0.05574230    -0.20400
C848        C  0.35026120  0.76831327  0.05188844    -0.21800
C849        C  0.34143716  0.77970379  0.01679848    -0.09900
C850        C  0.36228111  0.79153453  0.47885034     0.29000
C851        C  0.39123774  0.79186591  0.47806981    -0.21800
C852        C  0.39942661  0.78032760  0.01721943    -0.09900
C853        C  0.37908363  0.76861628  0.05226969     0.29000
F854        F  0.38777756  0.75935094  0.08784222    -0.20400
H855        H  0.33580727  0.76095671  0.08004015     0.17400
H856        H  0.40730196  0.80318911  0.45177817     0.17400
F857        F  0.35520969  0.80532002  0.44642561    -0.20400
C858        C  0.24973122  0.92042712  0.04706033    -0.21800
C859        C  0.24382640  0.93479789  0.01269465    -0.09900
C860        C  0.23769949  0.92044572  0.97319766     0.29000
C861        C  0.24643038  0.89674658  0.46908681    -0.21800
C862        C  0.25180829  0.88205639  0.50385269    -0.09900
C863        C  0.25223982  0.89362228  0.54422720     0.29000
F864        F  0.25638642  0.87938989  0.57866014    -0.20400
H865        H  0.25442103  0.93143261  0.07768717     0.17400
H866        H  0.24533919  0.88788634  0.43774355     0.17400
F867        F  0.23049659  0.93349302  0.93997958    -0.20400
C868        C  0.26390196  0.65619977  0.46315481    -0.21800
C869        C  0.26014073  0.63703743  0.49864112    -0.09900
C870        C  0.26032866  0.65017080  0.04309916     0.29000
C871        C  0.25973209  0.67872761  0.04682961    -0.21800
C872        C  0.26320186  0.69765353  0.01121497    -0.09900
C873        C  0.26359305  0.68484810  0.46694046     0.29000
F874        F  0.26478817  0.70150281  0.43176571    -0.20400
H875        H  0.26477835  0.64795141  0.43205818     0.17400
H876        H  0.25394928  0.68453381  0.07696577     0.17400
F877        F  0.25388445  0.63082594  0.07729631    -0.20400
C878        C  0.10608193  0.88572345  0.03350660    -0.21800
C879        C  0.09397247  0.87931494  0.49228070    -0.09900
C880        C  0.10755165  0.90301763  0.46076625     0.29000
C881        C  0.13382025  0.93331705  0.46992896    -0.21800
C882        C  0.14424075  0.94113232  0.01274085    -0.09900
C883        C  0.13300127  0.91585842  0.04244210     0.29000
F884        F  0.14747543  0.92036585  0.08030738    -0.20400
H885        H  0.09719587  0.86667054  0.05701158     0.17400
H886        H  0.14352603  0.95159683  0.44542626     0.17400
F887        F  0.09432768  0.89767431  0.42195791    -0.20400
C888        C  0.35094602  0.64071256  0.03593801    -0.21800
C889        C  0.34369799  0.62913995  0.49095207    -0.09900
C890        C  0.36805773  0.64208481  0.46075077     0.29000
C891        C  0.39631035  0.67398350  0.97346701    -0.21800
C892        C  0.40414920  0.68328807  0.01537094    -0.09900
C893        C  0.38090475  0.66720570  0.04651779     0.29000
F894        F  0.38764374  0.67598051  0.08720634    -0.20400
H895        H  0.33360390  0.62781671  0.06052496     0.17400
H896        H  0.41370484  0.68676960  0.94888508     0.17400
F897        F  0.36317147  0.62872774  0.42220048    -0.20400
C898        C  0.37830709  0.57095363  0.14291902    -0.21800
C899        C  0.38200666  0.54389783  0.15092934    -0.09900
C900        C  0.36303886  0.51563052  0.12763361     0.29000
C901        C  0.33944223  0.51367544  0.09991129    -0.21800
C902        C  0.33339197  0.53939439  0.09567840    -0.09900
C903        C  0.35370057  0.56847848  0.11657877     0.29000
F904        F  0.34925057  0.59411634  0.11250442    -0.20400
H905        H  0.39169041  0.59266924  0.16152307     0.17400
H906        H  0.32456172  0.49121645  0.08325222     0.17400
F907        F  0.36437767  0.48849407  0.13581399    -0.20400
C908        C  0.33801451  0.52475597  0.37619917    -0.21800
C909        C  0.31215889  0.52972120  0.36894988    -0.09900
C910        C  0.30499578  0.53400045  0.32761907     0.29000
C911        C  0.32383049  0.53391537  0.29435432    -0.21800
C912        C  0.35037481  0.52965289  0.30160310    -0.09900
C913        C  0.35685683  0.52480477  0.34333716     0.29000
F914        F  0.38234894  0.52122382  0.35267349    -0.20400
H915        H  0.34428047  0.52160459  0.40775878     0.17400
H916        H  0.31785284  0.53834090  0.26346464     0.17400
F917        F  0.28103171  0.54020626  0.31951291    -0.20400
C918        C  0.33046021  0.89313698  0.18927257    -0.21800
C919        C  0.36439968  0.90766553  0.18682317    -0.09900
C920        C  0.37740102  0.90146646  0.15170799     0.29000
C921        C  0.35707401  0.87978565  0.12138058    -0.21800
C922        C  0.32312200  0.86359455  0.12496779    -0.09900
C923        C  0.30997166  0.87118725  0.15880683     0.29000
F924        F  0.27760184  0.85747765  0.16254000    -0.20400
H925        H  0.31969426  0.89802568  0.21566661     0.17400
H926        H  0.36823629  0.87486702  0.09546589     0.17400
F927        F  0.40964768  0.91443093  0.14801154    -0.20400
C928        C  0.36786075  0.92147534  0.36901569    -0.21800
C929        C  0.38080467  0.91025692  0.33884919    -0.09900
C930        C  0.37253792  0.87722471  0.34129499     0.29000
C931        C  0.35016435  0.85583264  0.37065227    -0.21800
C932        C  0.33631998  0.86696169  0.39919313    -0.09900
C933        C  0.34625030  0.90026630  0.39903015     0.29000
F934        F  0.33371534  0.91214468  0.42673748    -0.20400
H935        H  0.37278534  0.94610552  0.36862677     0.17400
H936        H  0.34356479  0.83056788  0.37092334     0.17400
F937        F  0.38424802  0.86494723  0.31300325    -0.20400
C938        C  0.02963359  0.91641321  0.13988486    -0.21800
C939        C  0.51737578  0.92092281  0.16104951    -0.09900
C940        C  0.49179617  0.90840616  0.13240020     0.29000
C941        C  0.48852439  0.88548926  0.10281194    -0.21800
C942        C  0.51037911  0.87421357  0.10147975    -0.09900
C943        C  0.02959978  0.89289776  0.11390963     0.29000
F944        F  0.05779787  0.89457848  0.10470899    -0.20400
H945        H  0.05192543  0.93380883  0.15508215     0.17400
H946        H  0.46766254  0.87502068  0.08241090     0.17400
F947        F  0.46800654  0.91536663  0.13605210    -0.20400
C948        C  0.99451328  0.89201353  0.34559018    -0.21800
C949        C  0.99346159  0.88156802  0.30411324    -0.09900
C950        C  0.99138697  0.85121327  0.29892905     0.29000
C951        C  0.99145997  0.83309880  0.33396637    -0.21800
C952        C  0.99367258  0.84442679  0.37509359    -0.09900
C953        C  0.99497326  0.87419332  0.38027593     0.29000
F954        F  0.49766813  0.89000011  0.42572455    -0.20400
H955        H  0.49520142  0.92078212  0.36168461     0.17400
H956        H  0.99034558  0.81025361  0.32873037     0.17400
F957        F  0.98899968  0.83837376  0.26067593    -0.20400
C958        C  0.15109129  0.52381843  0.19015156    -0.21800
C959        C  0.12942190  0.53547826  0.18651601    -0.09900
C960        C  0.12942128  0.55030253  0.14832417     0.29000
C961        C  0.15093959  0.55405829  0.11588956    -0.21800
C962        C  0.17337469  0.54340763  0.12036413    -0.09900
C963        C  0.17280401  0.52796815  0.15813818     0.29000
F964        F  0.18866286  0.00907960  0.15857121    -0.20400
H965        H  0.14743604  0.00405951  0.21328261     0.17400
H966        H  0.14989732  0.56530515  0.08687602     0.17400
F967        F  0.10918364  0.56178355  0.14242197    -0.20400
C968        C  0.12568744  0.50784720  0.34335262    -0.21800
C969        C  0.11881875  0.53320728  0.34049274    -0.09900
C970        C  0.13314373  0.55827230  0.37035685     0.29000
C971        C  0.15507297  0.55874294  0.39962846    -0.21800
C972        C  0.16388574  0.53499394  0.39934284    -0.09900
C973        C  0.14841957  0.50906200  0.37155876     0.29000
F974        F  0.15571192  0.48521393  0.37102062    -0.20400
H975        H  0.11510991  0.48807203  0.32120572     0.17400
H976        H  0.16654743  0.57881267  0.42126179     0.17400
F977        F  0.12782122  0.58331969  0.37077499    -0.20400
C978        C  0.14324426  0.71210960  0.11797674    -0.21800
C979        C  0.16270119  0.70321600  0.09633175    -0.09900
C980        C  0.15540092  0.67071863  0.09972078     0.29000
C981        C  0.13174131  0.64892040  0.12775449    -0.21800
C982        C  0.11450523  0.65878156  0.15265252    -0.09900
C983        C  0.11882697  0.68989773  0.14495994     0.29000
F984        F  0.10280546  0.70046565  0.16862005    -0.20400
H985        H  0.14766352  0.73659294  0.11512265     0.17400
H986        H  0.12980077  0.62570733  0.13374559     0.17400
F987        F  0.17333263  0.66087348  0.07900853    -0.20400
C988        C  0.14581853  0.65802525  0.34296191    -0.21800
C989        C  0.15093098  0.67326472  0.30346549    -0.09900
C990        C  0.17512780  0.70660984  0.30098614     0.29000
C991        C  0.19265401  0.72346649  0.33681751    -0.21800
C992        C  0.18640082  0.70810594  0.37616900    -0.09900
C993        C  0.16323663  0.67480173  0.37846858     0.29000
F994        F  0.15646130  0.65845467  0.41541489    -0.20400
H995        H  0.12692258  0.63297311  0.34676359     0.17400
H996        H  0.20993527  0.74921536  0.33412023     0.17400
F997        F  0.18066524  0.72410351  0.26537669    -0.20400
C998        C  0.49360742  0.68957293  0.19644509    -0.21800
C999        C  0.50538771  0.66792255  0.19250847    -0.09900
C1000       C  0.03277749  0.70358417  0.19137512     0.29000
C1001       C  0.03138566  0.72299781  0.15883423    -0.21800
C1002       C  0.51014152  0.71124399  0.12567304    -0.09900
C1003       C  0.49639373  0.71108681  0.16423408     0.29000
F1004       F  0.48401945  0.73057460  0.17030377    -0.20400
H1005       H  0.48152086  0.68973956  0.22469794     0.17400
H1006       H  0.04776248  0.74901355  0.15924135     0.17400
F1007       F  0.05500336  0.71852825  0.22204319    -0.20400
C1008       C  0.47256235  0.65808736  0.34988908    -0.21800
C1009       C  0.00561437  0.65707477  0.34661656    -0.09900
C1010       C  0.03299140  0.67566797  0.37208286     0.29000
C1011       C  0.03241829  0.69598200  0.40257300    -0.21800
C1012       C  0.00555909  0.69953902  0.40671435    -0.09900
C1013       C  0.47329450  0.68089844  0.37707931     0.29000
F1014       F  0.44785024  0.68553598  0.37837881    -0.20400
H1015       H  0.45180432  0.64535914  0.32958573     0.17400
H1016       H  0.05394072  0.71084426  0.42089666     0.17400
F1017       F  0.06134080  0.67703505  0.36557302    -0.20400
C1018       C  0.00670367  0.63995757  0.80767502     0.86000
C1019       C  0.03298137  0.63235214  0.80264608    -0.54300
C1020       C  0.03525350  0.62118066  0.76432190     0.08900
C1021       C  0.49731228  0.61321580  0.73390541     0.19800
C1022       C  0.50307629  0.66083270  0.76795234    -0.55000
C1023       C  0.00648059  0.64686487  0.73138584     0.09000
C1024       C  0.46809418  0.60777521  0.79886656    -0.54500
C1025       C  0.46466271  0.59324377  0.76086404     0.09600
H1026       H  0.04714984  0.63280873  0.82905534     0.14100
H1027       H  0.49654901  0.60184878  0.70356409    -0.00200
H1028       H  0.50702272  0.68512908  0.77152908     0.14400
H1029       H  0.45142386  0.59722215  0.82468925     0.14200
C1030       C  0.12809391  0.65176414  0.76820456     0.86000
C1031       C  0.12431373  0.61866534  0.76122182    -0.54300
C1032       C  0.09756004  0.59641360  0.73879155     0.08900
C1033       C  0.08020565  0.61343293  0.71760795     0.19800
C1034       C  0.13267958  0.66493682  0.72445033    -0.55000
C1035       C  0.10838795  0.64590452  0.69735100     0.09000
C1036       C  0.09481346  0.64559840  0.78029280    -0.54500
C1037       C  0.06880910  0.62585668  0.75471309     0.09600
H1038       H  0.13993277  0.61213668  0.77784386     0.14100
H1039       H  0.06075952  0.59779344  0.69539667    -0.00200
H1040       H  0.15409062  0.68669427  0.71383629     0.14400
H1041       H  0.09375498  0.65919620  0.80640522     0.14200
C1042       C  0.10090401  0.53290098  0.80068275     0.86000
C1043       C  0.06960479  0.50261052  0.79346407    -0.54300
C1044       C  0.05654905  0.49842662  0.75425983     0.08900
C1045       C  0.07754252  0.53047520  0.72583911     0.19800
C1046       C  0.12319756  0.53618591  0.76444220    -0.55000
C1047       C  0.11215424  0.53543387  0.72505931     0.09000
C1048       C  0.09098861  0.55791245  0.79342530    -0.54500
C1049       C  0.08272742  0.56065822  0.75288799     0.09600
H1050       H  0.06378419  0.98773370  0.82013652     0.14100
H1051       H  0.06714860  0.52918582  0.69441196    -0.00200
H1052       H  0.14614532  0.53792226  0.77046644     0.14400
H1053       H  0.09438959  0.57543301  0.81705027     0.14200
C1054       C  0.99710165  0.90580693  0.76956857     0.86000
C1055       C  0.46162544  0.90685457  0.75738171    -0.54300
C1056       C  0.46458667  0.93187838  0.73233371     0.08900
C1057       C  0.99923187  0.95076734  0.71846599     0.19800
C1058       C  0.99956424  0.89900575  0.72444817    -0.55000
C1059       C  0.51021065  0.92537181  0.70268058     0.09000
C1060       C  0.02604827  0.93973567  0.77509620    -0.54500
C1061       C  0.02847904  0.96450624  0.74969352     0.09600
H1062       H  0.43905933  0.88909422  0.77188467     0.14100
H1063       H  0.00006980  0.96922510  0.69648179    -0.00200
H1064       H  0.00075233  0.87832599  0.71366329     0.14400
H1065       H  0.04487841  0.94207452  0.79588335     0.14200
C1066       C  0.39994306  0.93203692  0.79847056     0.86000
C1067       C  0.40723241  0.96658716  0.79250141    -0.54300
C1068       C  0.41414580  0.97874493  0.75185800     0.08900
C1069       C  0.42001548  0.95510773  0.72286264     0.19800
C1070       C  0.37679930  0.91253670  0.76290332    -0.55000
C1071       C  0.38661338  0.92378045  0.72372074     0.09000
C1072       C  0.43223623  0.93667647  0.78844816    -0.54500
C1073       C  0.44296984  0.94536844  0.74784301     0.09600
H1074       H  0.40351578  0.97930757  0.81760438     0.14100
H1075       H  0.42872197  0.96499741  0.69104489    -0.00200
H1076       H  0.35382287  0.89050037  0.76870258     0.14400
H1077       H  0.44439491  0.93030358  0.81205662     0.14200
C1078       C  0.37205131  0.53101274  0.76994595     0.86000
C1079       C  0.40523090  0.56068849  0.77627547    -0.54300
C1080       C  0.43031034  0.56433897  0.75151773     0.08900
C1081       C  0.41732542  0.53635309  0.71835928     0.19800
C1082       C  0.36490988  0.53421293  0.72495602    -0.55000
C1083       C  0.38779996  0.53729299  0.69726785     0.09000
C1084       C  0.37660919  0.50194809  0.76963748    -0.54500
C1085       C  0.40113430  0.50389227  0.74515010     0.09600
H1086       H  0.40699222  0.57875168  0.79789351     0.14100
H1087       H  0.43598042  0.53859887  0.69626499    -0.00200
H1088       H  0.34351451  0.53431041  0.71475014     0.14400
H1089       H  0.36005495  0.97501250  0.78330764     0.14200
O1090       O  0.25127936  0.59750661  0.95760022    -0.80700
O1091       O  0.28377653  0.54183104  0.57876089    -0.80700
O1092       O  0.18153645  0.54074528  0.54654140    -0.80700
O1093       O  0.30145633  0.57871377  0.01365987    -0.80600
O1094       O  0.21825568  0.53903865  0.58708260    -0.80800
O1095       O  0.30310301  0.59208386  0.94822412    -0.80700
O1096       O  0.30749333  0.52570001  0.53478351    -0.80700
O1097       O  0.24373433  0.58407812  0.52356400    -0.80700
C1098       C  0.25440208  0.60662195  0.99524503     1.09000
C1099       C  0.30632137  0.53557905  0.57049968     1.08900
C1100       C  0.19172388  0.54009338  0.58278733     1.09100
C1101       C  0.31442620  0.59926891  0.98493515     1.08900
O1102       O  0.26538545  0.53191645  0.90253647    -0.80700
O1103       O  0.19182999  0.97843190  0.55039773    -0.80700
O1104       O  0.19377532  0.55559604  0.96394610    -0.80700
O1105       O  0.26446365  0.98933335  0.48972709    -0.80600
O1106       O  0.24544149  0.97839596  0.55181769    -0.80700
O1107       O  0.21107180  0.53746979  0.91383623    -0.80700
O1108       O  0.30463007  0.54049977  0.94466960    -0.80600
O1109       O  0.17914158  0.99543631  0.49512374    -0.80700
Co1110     Co  0.25631145  0.56217444  0.93392749     1.51500
Co1111     Co  0.23710818  0.01479097  0.55791599     1.51700
Co1112     Co  0.21161818  0.53865917  0.51176099     1.51600
Co1113     Co  0.28549342  0.53420827  0.49030274     1.51500
O1114       O  0.24413062  0.53116475  0.49116668    -1.42600
C1115       C  0.29224309  0.53371089  0.90820423     1.09000
C1116       C  0.17381966  0.97276911  0.51919961     1.09100
C1117       C  0.19067540  0.54428478  0.92753683     1.09000
C1118       C  0.25181437  0.96936578  0.51850428     1.09000
O1119       O  0.99778646  0.74481750  0.91937828    -0.80700
O1120       O  0.44320722  0.78026134  0.54828202    -0.80700
O1121       O  0.46029425  0.71247152  0.49826969    -0.80700
O1122       O  0.00167919  0.83907335  0.94942718    -0.80600
O1123       O  0.44261003  0.72627687  0.55086176    -0.80800
O1124       O  0.99138306  0.79873510  0.90876623    -0.80700
O1125       O  0.45229869  0.79771264  0.48516786    -0.80700
O1126       O  0.51301850  0.72855564  0.96851176    -0.80700
C1127       C  0.00578370  0.72495679  0.93264706     1.09000
C1128       C  0.43308083  0.78550884  0.51475778     1.08900
C1129       C  0.43737843  0.70754905  0.52088155     1.09100
C1130       C  0.99432622  0.82628264  0.91342601     1.08900
O1131       O  0.05268005  0.83769198  0.95126826    -0.80700
O1132       O  0.50613650  0.75406199  0.58754025    -0.80700
O1133       O  0.05175298  0.78019717  0.52852449    -0.80700
O1134       O  0.99620502  0.84859979  0.53095963    -0.80600
O1135       O  0.50738997  0.82037502  0.57738025    -0.80700
O1136       O  0.05887741  0.78576996  0.95965341    -0.80700
O1137       O  0.04422672  0.83713160  0.51539235    -0.80600
O1138       O  0.50729764  0.71622845  0.54915298    -0.81600
Co1139     Co  0.02282264  0.79048023  0.93828030     1.51500
Co1140     Co  0.47891719  0.77180015  0.55674486     1.51700
Co1141     Co  0.50368950  0.74574741  0.51332228     1.51600
Co1142     Co  0.99802493  0.81550961  0.50274503     1.51500
O1143       O  0.49491884  0.77698106  0.48923255    -1.42600
C1144       C  0.06044005  0.84976442  0.98748580     1.09000
C1145       C  0.50737869  0.72739904  0.58480539     1.09100
C1146       C  0.06927709  0.78674225  0.99636706     1.09000
C1147       C  0.50469095  0.84571588  0.56844261     1.09000
O1148       O  0.20099303  0.79341873  0.94765090    -0.80700
O1149       O  0.27432681  0.81422774  0.59769576    -0.80700
O1150       O  0.19331550  0.71663323  0.53534793    -0.80700
O1151       O  0.26842561  0.84582359  0.52643199    -0.80600
O1152       O  0.21143235  0.75343691  0.58488227    -0.80800
O1153       O  0.25665727  0.84585367  0.95685626    -0.80700
O1154       O  0.31822032  0.84015513  0.56000638    -0.80700
O1155       O  0.18439696  0.75940857  0.50203595    -0.80700
C1156       C  0.18121341  0.77843009  0.97637631     1.09000
C1157       C  0.30415778  0.83669186  0.59419481     1.08900
C1158       C  0.19002893  0.72546236  0.57135102     1.09100
C1159       C  0.25749111  0.85572603  0.99350914     1.08900
O1160       O  0.29187974  0.81783782  0.92170268    -0.80700
O1161       O  0.24744663  0.72742692  0.54721499    -0.80700
O1162       O  0.18966458  0.71514301  0.94849205    -0.80700
O1163       O  0.30687526  0.79628271  0.49073108    -0.80600
O1164       O  0.30292501  0.78152070  0.55576372    -0.80700
O1165       O  0.22831049  0.75622565  0.91176060    -0.80700
O1166       O  0.31570203  0.85808885  0.96503979    -0.80600
O1167       O  0.24658018  0.73263242  0.47920771    -0.80700
Co1168     Co  0.24532347  0.80115711  0.94182504     1.51500
Co1169     Co  0.25767114  0.77082524  0.56729636     1.51700
Co1170     Co  0.21595354  0.74738124  0.48767338     1.51600
Co1171     Co  0.29214109  0.82478166  0.51018794     1.51500
O1172       O  0.24907258  0.78741350  0.50993072    -1.42600
C1173       C  0.31458356  0.84706960  0.92947038     1.09000
C1174       C  0.25184317  0.72014599  0.51090104     1.09100
C1175       C  0.20309298  0.72700073  0.91361872     1.09000
C1176       C  0.31551820  0.78496911  0.52000817     1.09000
C1177       C  0.12439880  0.81051954  0.96951956    -0.21800
C1178       C  0.10163829  0.79161135  0.00016774    -0.09900
C1179       C  0.10921121  0.77490737  0.53114382     0.29000
C1180       C  0.13560127  0.77120805  0.52450491    -0.21800
C1181       C  0.15482678  0.78435691  0.98553465    -0.09900
C1182       C  0.15077973  0.80697024  0.96210525     0.29000
F1183       F  0.17128062  0.82449836  0.93070777    -0.20400
H1184       H  0.12047835  0.82643616  0.94925017     0.17400
H1185       H  0.13870093  0.75462550  0.54448277     0.17400
F1186       F  0.08765550  0.75679425  0.56131011    -0.20400
C1187       C  0.34983502  0.76426419  0.54633478    -0.21800
C1188       C  0.34217178  0.77916583  0.51414023    -0.09900
C1189       C  0.35992455  0.78782751  0.98009276     0.29000
C1190       C  0.38888431  0.78823326  0.98049230    -0.21800
C1191       C  0.40030480  0.77974948  0.51219622    -0.09900
C1192       C  0.37865418  0.76446110  0.54548243     0.29000
F1193       F  0.38590659  0.75110759  0.57825960    -0.20400
H1194       H  0.33424713  0.75381489  0.57324207     0.17400
H1195       H  0.40382199  0.79642076  0.95276947     0.17400
F1196       F  0.35129444  0.79747161  0.94480033    -0.20400
C1197       C  0.24977129  0.92104311  0.54921778    -0.21800
C1198       C  0.24720692  0.93717540  0.51408769    -0.09900
C1199       C  0.24419278  0.92419306  0.47407970     0.29000
C1200       C  0.24053998  0.89338826  0.96748708    -0.21800
C1201       C  0.24961327  0.88075250  0.00113513    -0.09900
C1202       C  0.25292446  0.89363903  0.04139806     0.29000
F1203       F  0.26126354  0.88183556  0.07482558    -0.20400
H1204       H  0.25188753  0.93078220  0.58026327     0.17400
H1205       H  0.23713054  0.88333154  0.93642146     0.17400
F1206       F  0.24037288  0.93876843  0.43969399    -0.20400
C1207       C  0.27303390  0.66207646  0.96945824    -0.21800
C1208       C  0.26445356  0.64048477  0.00349838    -0.09900
C1209       C  0.26036038  0.64899535  0.53852250     0.29000
C1210       C  0.26030468  0.67778840  0.54232901    -0.21800
C1211       C  0.25981223  0.69474454  0.50649971    -0.09900
C1212       C  0.27224914  0.69048050  0.97314707     0.29000
F1213       F  0.27803263  0.70954702  0.93882950    -0.20400
H1214       H  0.27771325  0.65574578  0.93896943     0.17400
H1215       H  0.25843028  0.68555314  0.57332853     0.17400
F1216       F  0.25825660  0.63187493  0.57361809    -0.20400
C1217       C  0.10793272  0.88566959  0.53224297    -0.21800
C1218       C  0.09048660  0.88026389  0.99473771    -0.09900
C1219       C  0.10207489  0.90519799  0.96475580     0.29000
C1220       C  0.12863794  0.93542832  0.97385295    -0.21800
C1221       C  0.14703850  0.94020064  0.51038100    -0.09900
C1222       C  0.13449406  0.91589491  0.54129640     0.29000
F1223       F  0.14695910  0.92165860  0.58054050    -0.20400
H1224       H  0.09770848  0.86745039  0.55678393     0.17400
H1225       H  0.13693968  0.95444906  0.95037803     0.17400
F1226       F  0.08678540  0.90088630  0.92753892    -0.20400
C1227       C  0.34970599  0.64283910  0.53096109    -0.21800
C1228       C  0.34378117  0.63022478  0.99425288    -0.09900
C1229       C  0.36628349  0.64784345  0.96280934     0.29000
C1230       C  0.39845454  0.66758063  0.47107996    -0.21800
C1231       C  0.40490443  0.68080292  0.51138106    -0.09900
C1232       C  0.38009519  0.66877689  0.54113286     0.29000
F1233       F  0.38546903  0.68114518  0.58031035    -0.20400
H1234       H  0.33106904  0.63285047  0.55462355     0.17400
H1235       H  0.41711609  0.67680613  0.44754660     0.17400
F1236       F  0.36003792  0.63888637  0.92213376    -0.20400
C1237       C  0.38009561  0.56923833  0.64219482    -0.21800
C1238       C  0.38048056  0.54072302  0.65293671    -0.09900
C1239       C  0.35865666  0.51194039  0.63226455     0.29000
C1240       C  0.33447208  0.51080461  0.60647946    -0.21800
C1241       C  0.33136025  0.53826922  0.60040998    -0.09900
C1242       C  0.35581056  0.56808184  0.61620691     0.29000
F1243       F  0.35609868  0.59590502  0.60689977    -0.20400
H1244       H  0.39645366  0.59179373  0.65778455     0.17400
H1245       H  0.31722581  0.48790419  0.59230833     0.17400
F1246       F  0.35800597  0.48389431  0.64149470    -0.20400
C1247       C  0.33798661  0.52832711  0.87997908    -0.21800
C1248       C  0.31013440  0.52990999  0.87231484    -0.09900
C1249       C  0.30099592  0.52962790  0.83016571     0.29000
C1250       C  0.31992778  0.52910184  0.79703867    -0.21800
C1251       C  0.34852426  0.52859592  0.80473293    -0.09900
C1252       C  0.35662732  0.52740097  0.84708191     0.29000
F1253       F  0.38352231  0.52642948  0.85684766    -0.20400
H1254       H  0.34577519  0.52827199  0.91177674     0.17400
H1255       H  0.31203895  0.52962486  0.76559497     0.17400
F1256       F  0.27422960  0.53088570  0.82065872    -0.20400
C1257       C  0.33178261  0.89066718  0.69060964    -0.21800
C1258       C  0.36568129  0.90538334  0.68765426    -0.09900
C1259       C  0.37851542  0.89785346  0.65353850     0.29000
C1260       C  0.35800897  0.87531861  0.62409595    -0.21800
C1261       C  0.32409593  0.85963160  0.62767492    -0.09900
C1262       C  0.31113422  0.86788231  0.66107566     0.29000
F1263       F  0.27879351  0.85425317  0.66504734    -0.20400
H1264       H  0.32121195  0.89627907  0.71656513     0.17400
H1265       H  0.36893544  0.86961227  0.59865022     0.17400
F1266       F  0.41075704  0.91060728  0.64995740    -0.20400
C1267       C  0.37414178  0.92443066  0.87130915    -0.21800
C1268       C  0.38484099  0.91265556  0.83903162    -0.09900
C1269       C  0.37555395  0.87927324  0.84067620     0.29000
C1270       C  0.35244441  0.85777490  0.86937247    -0.21800
C1271       C  0.33968112  0.86923832  0.89908013    -0.09900
C1272       C  0.35240016  0.90319331  0.90136139     0.29000
F1273       F  0.34258588  0.91593079  0.93156554    -0.20400
H1274       H  0.38118307  0.94969398  0.87278101     0.17400
H1275       H  0.34437698  0.83215146  0.86813540     0.17400
F1276       F  0.38629942  0.86668550  0.81151585    -0.20400
C1277       C  0.03241386  0.91879347  0.63902380    -0.21800
C1278       C  0.51672522  0.91583350  0.66126121    -0.09900
C1279       C  0.49426334  0.90740156  0.62884187     0.29000
C1280       C  0.49171998  0.88564842  0.59795283    -0.21800
C1281       C  0.51099027  0.87130643  0.59924057    -0.09900
C1282       C  0.03330594  0.89615021  0.61212513     0.29000
F1283       F  0.06211356  0.90020311  0.60049153    -0.20400
H1284       H  0.05470744  0.93743572  0.65293632     0.17400
H1285       H  0.47304088  0.87828175  0.57447259     0.17400
F1286       F  0.47243488  0.91720515  0.62951654    -0.20400
C1287       C  0.99414730  0.89249874  0.84664624    -0.21800
C1288       C  0.99516889  0.88279749  0.80533070    -0.09900
C1289       C  0.99349563  0.85263815  0.80036884     0.29000
C1290       C  0.99212440  0.83404706  0.83552957    -0.21800
C1291       C  0.99227309  0.84461150  0.87652983    -0.09900
C1292       C  0.99280985  0.87398836  0.88152538     0.29000
F1293       F  0.49786792  0.89231621  0.92631398    -0.20400
H1294       H  0.49573082  0.92225152  0.86114117     0.17400
H1295       H  0.99156856  0.81144726  0.83052528     0.17400
F1296       F  0.99289425  0.84042798  0.76222070    -0.20400
C1297       C  0.11898086  0.52364621  0.64951783    -0.21800
C1298       C  0.13298233  0.53926490  0.68731557    -0.09900
C1299       C  0.16733312  0.55691558  0.68947840     0.29000
C1300       C  0.18636844  0.55672922  0.65630173    -0.21800
C1301       C  0.17216425  0.54044637  0.61906144    -0.09900
C1302       C  0.13811906  0.52443248  0.61587193     0.29000
F1303       F  0.12340227  0.00231217  0.58296554    -0.20400
H1304       H  0.09250619  0.00504234  0.64751946     0.17400
H1305       H  0.21234834  0.57004620  0.65941849     0.17400
F1306       F  0.18299983  0.57535578  0.72317708    -0.20400
C1307       C  0.13174542  0.55967432  0.86846452    -0.21800
C1308       C  0.11730798  0.53272863  0.84156096    -0.09900
C1309       C  0.12437597  0.50771881  0.84789780     0.29000
C1310       C  0.14757708  0.51130904  0.87685035    -0.21800
C1311       C  0.16354543  0.53924519  0.90114063    -0.09900
C1312       C  0.15443593  0.56274100  0.89831559     0.29000
F1313       F  0.16942791  0.58998482  0.92189209    -0.20400
H1314       H  0.12758969  0.57962495  0.86502314     0.17400
H1315       H  0.15389549  0.49266624  0.87928888     0.17400
F1316       F  0.11125448  0.48116388  0.82299667    -0.20400
C1317       C  0.14432073  0.71207138  0.62080586    -0.21800
C1318       C  0.16190052  0.70195614  0.59715965    -0.09900
C1319       C  0.15230403  0.66870842  0.59821453     0.29000
C1320       C  0.12860867  0.64722001  0.62642581    -0.21800
C1321       C  0.11365910  0.65826542  0.65361591    -0.09900
C1322       C  0.11973880  0.69023159  0.64775482     0.29000
F1323       F  0.10585484  0.70186891  0.67363003    -0.20400
H1324       H  0.15044749  0.73718735  0.61965307     0.17400
H1325       H  0.12500875  0.62312591  0.63069605     0.17400
F1326       F  0.16809156  0.65762423  0.57503617    -0.20400
C1327       C  0.14855597  0.65657648  0.84247711    -0.21800
C1328       C  0.15296909  0.67164606  0.80294854    -0.09900
C1329       C  0.17739216  0.70492647  0.79992469     0.29000
C1330       C  0.19521056  0.72208034  0.83541444    -0.21800
C1331       C  0.18918355  0.70712277  0.87497658    -0.09900
C1332       C  0.16626800  0.67371929  0.87768898     0.29000
F1333       F  0.15988641  0.65765687  0.91481562    -0.20400
H1334       H  0.12997434  0.63140168  0.84663645     0.17400
H1335       H  0.21247998  0.74780149  0.83228580     0.17400
F1336       F  0.18303263  0.72216213  0.76407852    -0.20400
C1337       C  0.48881941  0.68682578  0.69241245    -0.21800
C1338       C  0.50226346  0.66657969  0.69086093    -0.09900
C1339       C  0.02361575  0.66860436  0.65605774     0.29000
C1340       C  0.02638608  0.69024910  0.62355011    -0.21800
C1341       C  0.50823464  0.70883711  0.62256853    -0.09900
C1342       C  0.49203886  0.70777284  0.65933670     0.29000
F1343       F  0.47780401  0.72582089  0.66267417    -0.20400
H1344       H  0.47536299  0.68641646  0.71956027     0.17400
H1345       H  0.03932395  0.69132612  0.59549256     0.17400
F1346       F  0.03833310  0.65110093  0.65184492    -0.20400
C1347       C  0.47142007  0.66242512  0.84843832    -0.21800
C1348       C  0.00540563  0.65727465  0.84660360    -0.09900
C1349       C  0.03170298  0.67489530  0.87405096     0.29000
C1350       C  0.03052653  0.69541732  0.90363751    -0.21800
C1351       C  0.00422862  0.70010274  0.90516536    -0.09900
C1352       C  0.47187211  0.68417724  0.87739409     0.29000
F1353       F  0.44725708  0.69013815  0.87791325    -0.20400
H1354       H  0.45157172  0.65142454  0.82644496     0.17400
H1355       H  0.05127409  0.70944754  0.92359264     0.17400
F1356       F  0.05970192  0.67505136  0.87074543    -0.20400
C1357       C  0.49392976  0.15051339  0.28169406     0.86000
C1358       C  0.52450464  0.14931476  0.28269673    -0.54300
C1359       C  0.52633433  0.12722849  0.25745768     0.08900
C1360       C  0.00377881  0.11257432  0.23193152     0.19800
C1361       C  0.01082359  0.16053253  0.26654763    -0.55000
C1362       C  0.49405482  0.14021504  0.20799449     0.09000
C1363       C  0.97528110  0.10740904  0.29717739    -0.54500
C1364       C  0.97103374  0.09313789  0.25893864     0.09600
H1365       H  0.54424887  0.16754473  0.30107387     0.14100
H1366       H  0.00287928  0.10145592  0.20132347    -0.00200
H1367       H  0.01345515  0.18426524  0.27029019     0.14400
H1368       H  0.95870682  0.09679073  0.32316106     0.14200
C1369       C  0.60739965  0.14104260  0.30082871     0.86000
C1370       C  0.59736980  0.10586590  0.29890080    -0.54300
C1371       C  0.58400629  0.08985764  0.26217425     0.08900
C1372       C  0.57419811  0.11101162  0.23332058     0.19800
C1373       C  0.62401760  0.15668714  0.25969571    -0.55000
C1374       C  0.60706634  0.14248338  0.22438496     0.09000
C1375       C  0.57491867  0.13797744  0.29880310    -0.54500
C1376       C  0.55656270  0.12393245  0.26320588     0.09600
H1377       H  0.59925070  0.09360177  0.32640045     0.14100
H1378       H  0.56048952  0.09871906  0.20464546    -0.00200
H1379       H  0.64755827  0.17875874  0.25872172     0.14400
H1380       H  0.56711232  0.14536997  0.32597315     0.14200
C1381       C  0.61441638  0.02950889  0.27851618     0.86000
C1382       C  0.58037807  0.00121334  0.28042778    -0.54300
C1383       C  0.55844258  0.00099070  0.25260857     0.08900
C1384       C  0.57540779  0.03195703  0.22258232     0.19800
C1385       C  0.62525376  0.03002153  0.23448309    -0.55000
C1386       C  0.60628642  0.03186903  0.20426648     0.09000
C1387       C  0.61227689  0.05976980  0.27974496    -0.54500
C1388       C  0.59037045  0.06167929  0.25370593     0.09600
H1389       H  0.56973895  0.47698912  0.30185369     0.14100
H1390       H  0.55920662  0.03292451  0.19862643    -0.00200
H1391       H  0.64795163  0.03193250  0.22674328     0.14400
H1392       H  0.62927094  0.07926233  0.29969653     0.14200
C1393       C  0.49362183  0.41859629  0.27913023     0.86000
C1394       C  0.96585606  0.40978601  0.27185935    -0.54300
C1395       C  0.96556081  0.43395680  0.24847275     0.08900
C1396       C  0.50103207  0.45632463  0.21543672     0.19800
C1397       C  0.51183851  0.41484900  0.24331689    -0.55000
C1398       C  0.99667821  0.42112583  0.19723960     0.09000
C1399       C  0.51184413  0.45562848  0.28807203    -0.54500
C1400       C  0.52183555  0.47581743  0.25365381     0.09600
H1401       H  0.94564578  0.39193252  0.29024822     0.14100
H1402       H  0.50378772  0.47183050  0.18795950    -0.00200
H1403       H  0.51868545  0.39651004  0.24406205     0.14400
H1404       H  0.52189929  0.46553578  0.31827855     0.14200
C1405       C  0.89243578  0.42764481  0.30466209     0.86000
C1406       C  0.90365286  0.46350138  0.30198041    -0.54300
C1407       C  0.91435327  0.47831616  0.26327805     0.08900
C1408       C  0.91913797  0.45487402  0.23256504     0.19800
C1409       C  0.87116579  0.41205831  0.26644909    -0.55000
C1410       C  0.88412371  0.42512529  0.22861109     0.09000
C1411       C  0.92339240  0.42885164  0.29678673    -0.54500
C1412       C  0.93805894  0.44080892  0.25869249     0.09600
H1413       H  0.90166313  0.47617627  0.32851580     0.14100
H1414       H  0.93042450  0.46619273  0.20220150    -0.00200
H1415       H  0.84729352  0.39070125  0.26959088     0.14400
H1416       H  0.93336525  0.42147452  0.32207763     0.14200
C1417       C  0.87857260  0.03363416  0.27375209     0.86000
C1418       C  0.91193486  0.06366243  0.27566467    -0.54300
C1419       C  0.93587048  0.06503782  0.25056914     0.08900
C1420       C  0.92088844  0.03484823  0.22042966     0.19800
C1421       C  0.86899684  0.03365242  0.22903308    -0.55000
C1422       C  0.89052515  0.03513570  0.20021346     0.09000
C1423       C  0.88283706  0.00463072  0.27631722    -0.54500
C1424       C  0.90553510  0.00409759  0.25089562     0.09600
H1425       H  0.91503124  0.08348458  0.29506324     0.14100
H1426       H  0.93839133  0.03537876  0.19768267    -0.00200
H1427       H  0.84770136  0.03438317  0.21995423     0.14400
H1428       H  0.86775363  0.48618761  0.29982793     0.14200
O1429       O  0.74902922  0.09156318  0.45428393    -0.80700
O1430       O  0.78705133  0.04118278  0.07726079    -0.80700
O1431       O  0.68184999  0.03864507  0.03754358    -0.80700
O1432       O  0.80238910  0.07907213  0.51688932    -0.80600
O1433       O  0.71863326  0.03992748  0.08128863    -0.80800
O1434       O  0.80423237  0.09101155  0.45066938    -0.80700
O1435       O  0.81791926  0.03378046  0.03191972    -0.80700
O1436       O  0.74437194  0.08231375  0.01914235    -0.80700
C1437       C  0.74877815  0.09997330  0.49166228     1.09000
C1438       C  0.81243090  0.03853505  0.06902669     1.08900
C1439       C  0.69151217  0.03964666  0.07447884     1.09100
C1440       C  0.81540107  0.09873705  0.48729329     1.08900
O1441       O  0.77179330  0.02961477  0.40715913    -0.80700
O1442       O  0.69471082  0.47884129  0.05281200    -0.80700
O1443       O  0.69192593  0.04386775  0.45573308    -0.80700
O1444       O  0.76778983  0.48995918  0.98829380    -0.80600
O1445       O  0.74838875  0.47917835  0.05051926    -0.80700
O1446       O  0.71626887  0.02930815  0.41171337    -0.80700
O1447       O  0.81136949  0.04254827  0.45031801    -0.80600
O1448       O  0.68268278  0.49191376  0.99381754    -0.80700
Co1449     Co  0.75912243  0.05824245  0.43445566     1.51500
Co1450     Co  0.73995746  0.51528622  0.05766864     1.51700
Co1451     Co  0.71329553  0.03711142  0.00535078     1.51600
Co1452     Co  0.78518579  0.03433384  0.00076615     1.51500
O1453       O  0.74617714  0.03072608  0.98541984    -1.42600
C1454       C  0.79955932  0.03424628  0.41373209     1.09000
C1455       C  0.67741514  0.47092288  0.02072017     1.09100
C1456       C  0.69368142  0.03419843  0.41954519     1.09000
C1457       C  0.75519610  0.47022158  0.01742401     1.09000
O1458       O  0.49590637  0.25701577  0.40887327    -0.80700
O1459       O  0.94188360  0.27658743  0.05056403    -0.80700
O1460       O  0.96140952  0.21325991  0.99848644    -0.80700
O1461       O  0.50443261  0.34922365  0.45440147    -0.80600
O1462       O  0.94505451  0.22469086  0.05445742    -0.80800
O1463       O  0.49354098  0.31184397  0.40841169    -0.80700
O1464       O  0.95022777  0.29437392  0.98738941    -0.80700
O1465       O  0.01724425  0.22683003  0.46720440    -0.80700
C1466       C  0.50094431  0.23422004  0.41631666     1.09000
C1467       C  0.93129919  0.28168219  0.01726743     1.08900
C1468       C  0.93908509  0.20742487  0.02269339     1.09100
C1469       C  0.49596877  0.33853855  0.41752112     1.08900
O1470       O  0.55427812  0.34422972  0.45317360    -0.80700
O1471       O  0.00822755  0.25454360  0.09066106    -0.80700
O1472       O  0.54348289  0.27431443  0.02063888    -0.80700
O1473       O  0.49827782  0.35356287  0.03862941    -0.80600
O1474       O  0.00464557  0.32015410  0.07959734    -0.80700
O1475       O  0.55732213  0.28978544  0.45272234    -0.80700
O1476       O  0.54396062  0.33877057  0.01984631    -0.80600
O1477       O  0.00699318  0.21604551  0.05101053    -0.81600
Co1478     Co  0.52318980  0.29946157  0.43420575     1.51500
Co1479     Co  0.97941990  0.27097707  0.05958058     1.51700
Co1480     Co  0.00424829  0.24586839  0.01527202     1.51600
Co1481     Co  0.49838551  0.32150692  0.00582154     1.51500
O1482       O  0.99548274  0.27700766  0.99187948    -1.42600
C1483       C  0.56225565  0.35318888  0.49050789     1.09000
C1484       C  0.00853698  0.22729692  0.08701574     1.09100
C1485       C  0.56525143  0.28579956  0.48926481     1.09000
C1486       C  0.99961924  0.34398292  0.06957976     1.09000
O1487       O  0.69432165  0.28264394  0.46125589    -0.80700
O1488       O  0.77528887  0.31178524  0.10876210    -0.80700
O1489       O  0.69165713  0.21429519  0.05590144    -0.80700
O1490       O  0.77248768  0.34798044  0.03000061    -0.80600
O1491       O  0.71442557  0.25118578  0.10484453    -0.80800
O1492       O  0.74705104  0.33731462  0.46603297    -0.80700
O1493       O  0.81442153  0.33612714  0.06332991    -0.80700
O1494       O  0.68168398  0.25868592  0.02277003    -0.80700
C1495       C  0.67611933  0.27256925  0.49233294     1.09000
C1496       C  0.80334579  0.33525983  0.09939273     1.08900
C1497       C  0.69160781  0.22348678  0.09297472     1.09100
C1498       C  0.75322712  0.35238557  0.49974093     1.08900
O1499       O  0.78674044  0.31467781  0.43427010    -0.80700
O1500       O  0.74741871  0.22395219  0.06167750    -0.80700
O1501       O  0.68193498  0.21099497  0.46887276    -0.80700
O1502       O  0.80274721  0.28990281  0.99835817    -0.80600
O1503       O  0.80351876  0.27958535  0.06489708    -0.80700
O1504       O  0.72283556  0.24778264  0.43009787    -0.80700
O1505       O  0.81710777  0.35467839  0.47813584    -0.80600
O1506       O  0.74131367  0.22913368  0.99490403    -0.80700
Co1507     Co  0.73949805  0.29326900  0.45744308     1.51500
Co1508     Co  0.75895387  0.26804597  0.08183169     1.51700
Co1509     Co  0.71178359  0.24473699  0.00702733     1.51600
Co1510     Co  0.78685880  0.31905097  0.01210330     1.51500
O1511       O  0.74639373  0.28390097  0.02820276    -1.42600
C1512       C  0.81124243  0.34375970  0.44126208     1.09000
C1513       C  0.74860263  0.21638363  0.02415536     1.09100
C1514       C  0.69494323  0.22097243  0.43341578     1.09000
C1515       C  0.81388140  0.28129321  0.02805070     1.09000
C1516       C  0.62140595  0.30522610  0.46809581    -0.21800
C1517       C  0.59592343  0.28698012  0.49565826    -0.09900
C1518       C  0.59843403  0.26626775  0.02838719     0.29000
C1519       C  0.62624772  0.26429213  0.02904007    -0.21800
C1520       C  0.64965995  0.27916558  0.49548519    -0.09900
C1521       C  0.64819726  0.30160285  0.46807812     0.29000
F1522       F  0.67219957  0.31948754  0.44044821    -0.20400
H1523       H  0.62006292  0.32149318  0.44551436     0.17400
H1524       H  0.62791087  0.24802291  0.05128712     0.17400
F1525       F  0.57430039  0.24738585  0.05523777    -0.20400
C1526       C  0.84826240  0.25968397  0.05115584    -0.21800
C1527       C  0.84071643  0.27597762  0.02076192    -0.09900
C1528       C  0.86113504  0.29184222  0.48193912     0.29000
C1529       C  0.88926130  0.29054126  0.47874161    -0.21800
C1530       C  0.89839637  0.27574302  0.01557852    -0.09900
C1531       C  0.87683206  0.25942289  0.04865078     0.29000
F1532       F  0.88397074  0.24458349  0.07968966    -0.20400
H1533       H  0.83266318  0.24826717  0.07783520     0.17400
H1534       H  0.90562403  0.30321240  0.45312857     0.17400
F1535       F  0.85510445  0.30859159  0.45241495    -0.20400
C1536       C  0.75333808  0.42288084  0.05034697    -0.21800
C1537       C  0.75119036  0.43835123  0.01420114    -0.09900
C1538       C  0.74856564  0.42474278  0.97475508     0.29000
C1539       C  0.74619407  0.39517805  0.46860682    -0.21800
C1540       C  0.74641926  0.37824827  0.50434410    -0.09900
C1541       C  0.74297826  0.38808902  0.54411105     0.29000
F1542       F  0.74093360  0.37064916  0.57885908    -0.20400
H1543       H  0.75530365  0.43323314  0.08095394     0.17400
H1544       H  0.74800143  0.38729541  0.43763713     0.17400
F1545       F  0.74565121  0.43898286  0.93942168    -0.20400
C1546       C  0.76032615  0.15414540  0.46749880    -0.21800
C1547       C  0.75600962  0.13296966  0.50069846    -0.09900
C1548       C  0.76143899  0.14615777  0.03980625     0.29000
C1549       C  0.76008513  0.17389983  0.04782873    -0.21800
C1550       C  0.75613443  0.19109280  0.01488400    -0.09900
C1551       C  0.76062415  0.18284422  0.47481989     0.29000
F1552       F  0.76321162  0.20196786  0.44173207    -0.20400
H1553       H  0.76165043  0.14769284  0.43553182     0.17400
H1554       H  0.76043596  0.18089157  0.08000534     0.17400
F1555       F  0.76355180  0.12912038  0.07257104    -0.20400
C1556       C  0.60531906  0.38884860  0.04045715    -0.21800
C1557       C  0.59442031  0.38039892  0.49999222    -0.09900
C1558       C  0.61626251  0.39746978  0.46756786     0.29000
C1559       C  0.64443577  0.42626359  0.47613368    -0.21800
C1560       C  0.65132653  0.43790082  0.01457386    -0.09900
C1561       C  0.63293165  0.41857081  0.04825159     0.29000
F1562       F  0.64025326  0.42936968  0.08816194    -0.20400
H1563       H  0.59025613  0.37493551  0.06655108     0.17400
H1564       H  0.66037340  0.43991211  0.45052629     0.17400
F1565       F  0.60984463  0.38740688  0.42729542    -0.20400
C1566       C  0.85243437  0.14209229  0.03399104    -0.21800
C1567       C  0.84583784  0.12833405  0.49483130    -0.09900
C1568       C  0.86978979  0.14060911  0.46398868     0.29000
C1569       C  0.89898376  0.17110960  0.97168156    -0.21800
C1570       C  0.90657333  0.18151137  0.01316891    -0.09900
C1571       C  0.88284586  0.16763042  0.04418185     0.29000
F1572       F  0.88937073  0.17765309  0.08445680    -0.20400
H1573       H  0.83466950  0.13060388  0.05854122     0.17400
H1574       H  0.91676988  0.18236039  0.94719848     0.17400
F1575       F  0.86398917  0.12750616  0.42518940    -0.20400
C1576       C  0.88179818  0.06859900  0.14797835    -0.21800
C1577       C  0.88274158  0.03997693  0.15636774    -0.09900
C1578       C  0.86191286  0.01220477  0.13320114     0.29000
C1579       C  0.83900813  0.01224489  0.10578810    -0.21800
C1580       C  0.83571786  0.03973247  0.10105821    -0.09900
C1581       C  0.85845007  0.06847092  0.12100504     0.29000
F1582       F  0.85781247  0.09620207  0.11502054    -0.20400
H1583       H  0.89695086  0.09025252  0.16598373     0.17400
H1584       H  0.82288346  0.99017706  0.08907311     0.17400
F1585       F  0.86142020  0.98399550  0.14040407    -0.20400
C1586       C  0.84935351  0.03688622  0.38484966    -0.21800
C1587       C  0.81844846  0.03199477  0.37817557    -0.09900
C1588       C  0.80644188  0.02638398  0.33674148     0.29000
C1589       C  0.82538618  0.02704683  0.30310108    -0.21800
C1590       C  0.85677458  0.03285804  0.30956020    -0.09900
C1591       C  0.86799687  0.03682621  0.35140356     0.29000
F1592       F  0.89745867  0.04106255  0.36006788    -0.20400
H1593       H  0.85928927  0.04092184  0.41614081     0.17400
H1594       H  0.81486514  0.02245160  0.27226427     0.17400
F1595       F  0.77632685  0.02044151  0.32833689    -0.20400
C1596       C  0.83056714  0.39346548  0.19169591    -0.21800
C1597       C  0.86455678  0.40864522  0.19005371    -0.09900
C1598       C  0.87799902  0.40215034  0.15538967     0.29000
C1599       C  0.85793784  0.37898842  0.12554931    -0.21800
C1600       C  0.82400833  0.36149900  0.12975672    -0.09900
C1601       C  0.81059240  0.36980828  0.16266833     0.29000
F1602       F  0.77815849  0.35483441  0.16721239    -0.20400
H1603       H  0.81921047  0.39870317  0.21705515     0.17400
H1604       H  0.86910070  0.37369921  0.09999657     0.17400
F1605       F  0.91040287  0.41656483  0.15166646    -0.20400
C1606       C  0.86445144  0.41934295  0.37640142    -0.21800
C1607       C  0.87449004  0.40725319  0.34357307    -0.09900
C1608       C  0.86408730  0.37361823  0.34437443     0.29000
C1609       C  0.84315777  0.35281914  0.37545652    -0.21800
C1610       C  0.83302006  0.36504960  0.40757836    -0.09900
C1611       C  0.84430779  0.39865097  0.40810455     0.29000
F1612       F  0.83463279  0.41139209  0.43848494    -0.20400
H1613       H  0.87108355  0.44449146  0.37749026     0.17400
H1614       H  0.83508122  0.32718260  0.37456632     0.17400
F1615       F  0.87301400  0.36046935  0.31366121    -0.20400
C1616       C  0.53920803  0.40717441  0.16569674    -0.21800
C1617       C  0.99819891  0.41361582  0.15283934    -0.09900
C1618       C  0.96971296  0.38769731  0.13605748     0.29000
C1619       C  0.97081865  0.36492241  0.11010470    -0.21800
C1620       C  0.00023188  0.36730822  0.10010012    -0.09900
C1621       C  0.53521085  0.38361556  0.13650406     0.29000
F1622       F  0.55578676  0.37222908  0.13692437    -0.20400
H1623       H  0.55802615  0.41472687  0.18900281     0.17400
H1624       H  0.94840915  0.34457404  0.09884899     0.17400
F1625       F  0.94063549  0.38156473  0.14996861    -0.20400
C1626       C  0.49697949  0.40843148  0.35852768    -0.21800
C1627       C  0.48926140  0.39646617  0.31717915    -0.09900
C1628       C  0.47838699  0.36322030  0.31153468     0.29000
C1629       C  0.47962453  0.34431895  0.34449297    -0.21800
C1630       C  0.49073154  0.35758518  0.38444797    -0.09900
C1631       C  0.49815053  0.38956670  0.39139956     0.29000
F1632       F  0.99531878  0.30812701  0.32252311    -0.20400
H1633       H  0.99559682  0.34703866  0.26620992     0.17400
H1634       H  0.47257071  0.31935877  0.33833814     0.17400
F1635       F  0.46757870  0.34915469  0.27366788    -0.20400
C1636       C  0.61606335  0.00859652  0.14099431    -0.21800
C1637       C  0.62044296  0.03651561  0.16124260    -0.09900
C1638       C  0.64928979  0.06617239  0.15220031     0.29000
C1639       C  0.67319204  0.06731439  0.12560991    -0.21800
C1640       C  0.66949715  0.03885413  0.10796045    -0.09900
C1641       C  0.63999907  0.00969915  0.11483343     0.29000
F1642       F  0.62863745  0.48929441  0.09029307    -0.20400
H1643       H  0.59422429  0.49403707  0.14879842     0.17400
H1644       H  0.69481989  0.09040400  0.11934487     0.17400
F1645       F  0.65591838  0.09352642  0.17281078    -0.20400
C1646       C  0.62790032  0.03522591  0.35556369    -0.21800
C1647       C  0.63434183  0.02825690  0.31509785    -0.09900
C1648       C  0.65761224  0.01902539  0.31124820     0.29000
C1649       C  0.67594273  0.02033402  0.34576437    -0.21800
C1650       C  0.67128461  0.03003360  0.38521532    -0.09900
C1651       C  0.64635893  0.03657581  0.39010955     0.29000
F1652       F  0.64008926  0.04476531  0.42788550    -0.20400
H1653       H  0.60886237  0.04052504  0.36024534     0.17400
H1654       H  0.69413550  0.01381439  0.34128715     0.17400
F1655       F  0.66207239  0.00722774  0.27524428    -0.20400
C1656       C  0.65310126  0.21364012  0.15134179    -0.21800
C1657       C  0.66553028  0.20117720  0.12234214    -0.09900
C1658       C  0.65328284  0.16730267  0.12241046     0.29000
C1659       C  0.63107229  0.14700261  0.15309630    -0.21800
C1660       C  0.62039934  0.15999198  0.18383643    -0.09900
C1661       C  0.63051015  0.19332795  0.18126145     0.29000
F1662       F  0.62026633  0.20674980  0.20995538    -0.20400
H1663       H  0.66146036  0.23935609  0.15145458     0.17400
H1664       H  0.62394493  0.12162783  0.15457081     0.17400
F1665       F  0.66461961  0.15417284  0.09484735    -0.20400
C1666       C  0.64702061  0.15002847  0.36123869    -0.21800
C1667       C  0.62942472  0.16083438  0.33738075    -0.09900
C1668       C  0.63665115  0.19305948  0.34344519     0.29000
C1669       C  0.65995886  0.21323990  0.37260016    -0.21800
C1670       C  0.67667182  0.20199760  0.39667058    -0.09900
C1671       C  0.66979170  0.17009481  0.39107631     0.29000
F1672       F  0.68511400  0.15831168  0.41456389    -0.20400
H1673       H  0.64411957  0.12640590  0.35663998     0.17400
H1674       H  0.66414346  0.23744426  0.37750817     0.17400
F1675       F  0.62139315  0.20526971  0.32065578    -0.20400
C1676       C  0.99436934  0.15403678  0.15403610    -0.21800
C1677       C  0.01346150  0.16829425  0.18952854    -0.09900
C1678       C  0.52786950  0.18496809  0.15826017     0.29000
C1679       C  0.52773819  0.20825667  0.13107134    -0.21800
C1680       C  0.01054651  0.20779414  0.12309022    -0.09900
C1681       C  0.99314345  0.17330962  0.12123198     0.29000
F1682       F  0.97378629  0.15794607  0.08803447    -0.20400
H1683       H  0.97930784  0.12787379  0.15231846     0.17400
H1684       H  0.54920117  0.23199287  0.12827925     0.17400
F1685       F  0.55422489  0.19402464  0.18256931    -0.20400
C1686       C  0.97922163  0.16327900  0.34384857    -0.21800
C1687       C  0.49342980  0.17166085  0.31652330    -0.09900
C1688       C  0.49930803  0.16559717  0.35802590     0.29000
C1689       C  0.50124389  0.18566886  0.39042818    -0.21800
C1690       C  0.49645826  0.21165166  0.38257123    -0.09900
C1691       C  0.97912112  0.18463782  0.37275166     0.29000
F1692       F  0.95630357  0.19310220  0.36964809    -0.20400
H1693       H  0.96114828  0.15443017  0.31936175     0.17400
H1694       H  0.50687324  0.18104259  0.42162283     0.17400
F1695       F  0.50399756  0.14056849  0.36712010    -0.20400
C1696       C  0.49368230  0.14906085  0.78541210     0.86000
C1697       C  0.52257342  0.14484121  0.79147821    -0.54300
C1698       C  0.52721180  0.12639730  0.76265993     0.08900
C1699       C  0.00187973  0.11376665  0.73213616     0.19800
C1700       C  0.00690924  0.16051728  0.76803268    -0.55000
C1701       C  0.50093665  0.14501256  0.71118720     0.09000
C1702       C  0.97366812  0.10676434  0.79833378    -0.54500
C1703       C  0.96977755  0.09284739  0.75976645     0.09600
H1704       H  0.53864055  0.15799635  0.81677092     0.14100
H1705       H  0.00099920  0.10298458  0.70129664    -0.00200
H1706       H  0.01060982  0.18461368  0.77271566     0.14400
H1707       H  0.95712783  0.09546577  0.82422746     0.14200
C1708       C  0.61531273  0.14848730  0.79042149     0.86000
C1709       C  0.61109205  0.11539491  0.78575790    -0.54300
C1710       C  0.58830679  0.09435771  0.75745391     0.08900
C1711       C  0.57385524  0.11263781  0.73153007     0.19800
C1712       C  0.62503177  0.16293467  0.74708900    -0.55000
C1713       C  0.60435806  0.14503779  0.71588333     0.09000
C1714       C  0.58128334  0.14239615  0.79594487    -0.54500
C1715       C  0.55894885  0.12544034  0.76475669     0.09600
H1716       H  0.62639620  0.10977100  0.80459567     0.14100
H1717       H  0.55689123  0.09800703  0.70627959    -0.00200
H1718       H  0.64689489  0.18559750  0.74026691     0.14400
H1719       H  0.57699167  0.15263404  0.82320295     0.14200
C1720       C  0.60723219  0.03087423  0.78920894     0.86000
C1721       C  0.57905456  0.99832909  0.77826506    -0.54300
C1722       C  0.55866252  0.99825095  0.74800181     0.08900
C1723       C  0.57518990  0.03307653  0.72411737     0.19800
C1724       C  0.62705688  0.04231764  0.74936991    -0.55000
C1725       C  0.61106003  0.04199314  0.71410104     0.09000
C1726       C  0.59149283  0.05135343  0.79468630    -0.54500
C1727       C  0.57993605  0.05830989  0.75936669     0.09600
H1728       H  0.57406300  0.47983830  0.79490419     0.14100
H1729       H  0.56135112  0.03351461  0.69656774    -0.00200
H1730       H  0.65171875  0.04740952  0.74871071     0.14400
H1731       H  0.59044940  0.06136043  0.82433460     0.14200
C1732       C  0.49776604  0.42107642  0.78043882     0.86000
C1733       C  0.96916008  0.40944293  0.77171939    -0.54300
C1734       C  0.96805914  0.43315324  0.74832797     0.08900
C1735       C  0.49925102  0.45545587  0.71547700     0.19800
C1736       C  0.51260100  0.41551141  0.74226750    -0.55000
C1737       C  0.99733488  0.41954960  0.69507971     0.09000
C1738       C  0.51583952  0.45835685  0.78655434    -0.54500
C1739       C  0.52339546  0.47695147  0.75065712     0.09600
H1740       H  0.94956134  0.39197247  0.79125234     0.14100
H1741       H  0.49949970  0.46938668  0.68744868    -0.00200
H1742       H  0.51957170  0.39724937  0.74234483     0.14400
H1743       H  0.52698628  0.46979091  0.81570439     0.14200
C1744       C  0.89498765  0.42509404  0.80644207     0.86000
C1745       C  0.90425989  0.46040308  0.80287514    -0.54300
C1746       C  0.91442925  0.47507574  0.76406196     0.08900
C1747       C  0.92001650  0.45207829  0.73349010     0.19800
C1748       C  0.87365028  0.40804397  0.76869560    -0.55000
C1749       C  0.88551539  0.42121532  0.73043804     0.09000
C1750       C  0.92678226  0.42814060  0.79822206    -0.54500
C1751       C  0.94050515  0.43972392  0.75950923     0.09600
H1752       H  0.90205547  0.47306038  0.82925680     0.14100
H1753       H  0.93056790  0.46334494  0.70281975    -0.00200
H1754       H  0.85038807  0.38599670  0.77255593     0.14400
H1755       H  0.93782313  0.42188046  0.82338763     0.14200
C1756       C  0.87795956  0.03146282  0.77406500     0.86000
C1757       C  0.91067948  0.06239939  0.77546033    -0.54300
C1758       C  0.93499700  0.06435181  0.75078245     0.08900
C1759       C  0.92099402  0.03378044  0.72131723     0.19800
C1760       C  0.86792592  0.03006453  0.72935164    -0.55000
C1761       C  0.88981565  0.03221847  0.70075090     0.09000
C1762       C  0.88370512  0.00348364  0.77788719    -0.54500
C1763       C  0.90674552  0.00352897  0.75258786     0.09600
H1764       H  0.91331336  0.08207239  0.79481483     0.14100
H1765       H  0.93883458  0.03477079  0.69877473    -0.00200
H1766       H  0.84614391  0.02971591  0.71995887     0.14400
H1767       H  0.86749245  0.48240306  0.80029419     0.14200
O1768       O  0.75193287  0.09387851  0.95234301    -0.80700
O1769       O  0.78610825  0.04019628  0.57976736    -0.80700
O1770       O  0.67799558  0.03298243  0.54065676    -0.80700
O1771       O  0.80334929  0.08002056  0.01432991    -0.80600
O1772       O  0.71782269  0.04004633  0.58333029    -0.80800
O1773       O  0.80568846  0.09145453  0.94793568    -0.80700
O1774       O  0.81674976  0.03259170  0.53427503    -0.80700
O1775       O  0.73960661  0.07931762  0.52064723    -0.80700
C1776       C  0.75252054  0.10264150  0.98980491     1.09000
C1777       C  0.81124816  0.03716776  0.57145008     1.08900
C1778       C  0.68956201  0.03769573  0.57734214     1.09100
C1779       C  0.81623666  0.09972440  0.98474415     1.08900
O1780       O  0.77171456  0.02981847  0.90499367    -0.80700
O1781       O  0.69527611  0.47883279  0.55555730    -0.80700
O1782       O  0.69566142  0.04844227  0.95552486    -0.80700
O1783       O  0.76853118  0.48931419  0.48971176    -0.80600
O1784       O  0.74818296  0.47799038  0.55151090    -0.80700
O1785       O  0.71657498  0.03174458  0.90902636    -0.80700
O1786       O  0.81152914  0.04280064  0.94803864    -0.80600
O1787       O  0.68443235  0.49173051  0.49578669    -0.80700
Co1788     Co  0.76023065  0.05939924  0.93195686     1.51500
Co1789     Co  0.74109870  0.51483199  0.56008301     1.51700
Co1790     Co  0.71034710  0.03368173  0.50662244     1.51600
Co1791     Co  0.78427167  0.03342069  0.50289951     1.51500
O1792       O  0.74513196  0.02977494  0.48785847    -1.42600
C1793       C  0.79929155  0.03394352  0.91177192     1.09000
C1794       C  0.67829741  0.47085997  0.52312300     1.09100
C1795       C  0.69501850  0.03767112  0.91935435     1.09000
C1796       C  0.75423662  0.46897483  0.51785401     1.09000
O1797       O  0.49275763  0.25454735  0.91146718    -0.80700
O1798       O  0.94043193  0.27541994  0.54575805    -0.80700
O1799       O  0.96270194  0.21137661  0.49930952    -0.80700
O1800       O  0.50872320  0.35052851  0.95520313    -0.80600
O1801       O  0.94474519  0.22418083  0.55254125    -0.80800
O1802       O  0.49458026  0.31198578  0.90983519    -0.80700
O1803       O  0.94944776  0.29299328  0.48254803    -0.80700
O1804       O  0.01655149  0.22751505  0.96800178    -0.80700
C1805       C  0.49641341  0.23090683  0.91954296     1.09000
C1806       C  0.93017566  0.28056622  0.51215810     1.08900
C1807       C  0.93989733  0.20558541  0.52266044     1.09100
C1808       C  0.49973475  0.33989177  0.91845197     1.08900
O1809       O  0.55557354  0.34132119  0.95366133    -0.80700
O1810       O  0.00767820  0.25562557  0.58866654    -0.80700
O1811       O  0.54542816  0.27706115  0.51875501    -0.80700
O1812       O  0.49287483  0.35011495  0.53840097    -0.80600
O1813       O  0.00341990  0.31979625  0.57543350    -0.80700
O1814       O  0.55482279  0.28519403  0.95419062    -0.80700
O1815       O  0.54184003  0.34021986  0.51915083    -0.80600
O1816       O  0.01023404  0.21798797  0.55131985    -0.81600
Co1817     Co  0.52227177  0.29706772  0.93566789     1.51500
Co1818     Co  0.97839267  0.27054422  0.55639064     1.51700
Co1819     Co  0.00553137  0.24590789  0.51424025     1.51600
Co1820     Co  0.49590040  0.32003251  0.50460263     1.51500
O1821       O  0.99504269  0.27558074  0.48919146    -1.42600
C1822       C  0.56407588  0.35083527  0.99072159     1.09000
C1823       C  0.01006678  0.22947297  0.58664921     1.09100
C1824       C  0.56317167  0.28247988  0.99102089     1.09000
C1825       C  0.99850578  0.34350861  0.56474652     1.09000
O1826       O  0.69640616  0.28635753  0.96568872    -0.80700
O1827       O  0.77417359  0.31226833  0.60647022    -0.80700
O1828       O  0.69258145  0.21366066  0.55314429    -0.80700
O1829       O  0.76735656  0.34635646  0.52779299    -0.80600
O1830       O  0.71387122  0.25067566  0.60222793    -0.80800
O1831       O  0.75114316  0.33960203  0.96903358    -0.80700
O1832       O  0.81273693  0.33811334  0.56076344    -0.80700
O1833       O  0.68080872  0.25649244  0.51933572    -0.80700
C1834       C  0.67766343  0.27560188  0.99638293     1.09000
C1835       C  0.80210070  0.33609654  0.59743393     1.08900
C1836       C  0.69135188  0.22300326  0.58958455     1.09100
C1837       C  0.75915984  0.35527955  0.00235000     1.08900
O1838       O  0.78805326  0.31373961  0.93667049    -0.80700
O1839       O  0.74856055  0.22488722  0.56041769    -0.80700
O1840       O  0.68105054  0.21316841  0.97037988    -0.80700
O1841       O  0.80342954  0.29314611  0.49572671    -0.80600
O1842       O  0.80386021  0.28155183  0.56199357    -0.80700
O1843       O  0.72269045  0.24906947  0.93228492    -0.80700
O1844       O  0.82063189  0.35253616  0.98067851    -0.80600
O1845       O  0.74276105  0.22907700  0.49329305    -0.80700
Co1846     Co  0.74102794  0.29468869  0.96033373     1.51500
Co1847     Co  0.75887585  0.26871349  0.57951788     1.51700
Co1848     Co  0.71209213  0.24363680  0.50436476     1.51600
Co1849     Co  0.78483271  0.31999784  0.50982172     1.51500
O1850       O  0.74549782  0.28329273  0.52552167    -1.42600
C1851       C  0.81390728  0.34189483  0.94372138     1.09000
C1852       C  0.74990713  0.21675255  0.52329354     1.09100
C1853       C  0.69458008  0.22245837  0.93496021     1.09000
C1854       C  0.81439372  0.28393593  0.52501059     1.09000
C1855       C  0.62015170  0.30471630  0.97081886    -0.21800
C1856       C  0.59465044  0.28546057  0.99798770    -0.09900
C1857       C  0.59850413  0.26647493  0.52526329     0.29000
C1858       C  0.62520394  0.26260174  0.52503549    -0.21800
C1859       C  0.65069419  0.28153094  0.99958483    -0.09900
C1860       C  0.64812573  0.30307344  0.97175935     0.29000
F1861       F  0.67209269  0.32175621  0.94447251    -0.20400
H1862       H  0.61795399  0.32023007  0.94783183     0.17400
H1863       H  0.62607048  0.24562250  0.54683320     0.17400
F1864       F  0.57426145  0.24829091  0.55233721    -0.20400
C1865       C  0.84750399  0.26017228  0.54603261    -0.21800
C1866       C  0.84088724  0.27801235  0.51691542    -0.09900
C1867       C  0.86083568  0.28971925  0.98573297     0.29000
C1868       C  0.88950411  0.28956452  0.98327757    -0.21800
C1869       C  0.89738064  0.27528887  0.51009214    -0.09900
C1870       C  0.87535600  0.25855790  0.54259275     0.29000
F1871       F  0.88142080  0.24193110  0.57226865    -0.20400
H1872       H  0.83166034  0.24839249  0.57239731     0.17400
H1873       H  0.90560961  0.30199686  0.95735170     0.17400
F1874       F  0.85418286  0.30545766  0.95545893    -0.20400
C1875       C  0.74311248  0.41691808  0.54825372    -0.21800
C1876       C  0.74689015  0.43588829  0.51276907    -0.09900
C1877       C  0.74657969  0.42406173  0.47270421     0.29000
C1878       C  0.74997884  0.39678873  0.97141939    -0.21800
C1879       C  0.75439370  0.38250163  0.00725926    -0.09900
C1880       C  0.75517063  0.39506797  0.04697028     0.29000
F1881       F  0.75839662  0.38099088  0.08224542    -0.20400
H1882       H  0.74241435  0.42537750  0.57928739     0.17400
H1883       H  0.74894943  0.38711383  0.94060596     0.17400
F1884       F  0.74840871  0.44118547  0.43770514    -0.20400
C1885       C  0.75832509  0.15441510  0.96538556    -0.21800
C1886       C  0.75886159  0.13533215  0.99849426    -0.09900
C1887       C  0.75548122  0.14256152  0.54197094     0.29000
C1888       C  0.75578932  0.17125286  0.54926125    -0.21800
C1889       C  0.75661288  0.19068643  0.51566817    -0.09900
C1890       C  0.75690236  0.18208262  0.97337111     0.29000
F1891       F  0.75445692  0.19879581  0.94045651    -0.20400
H1892       H  0.75691669  0.14687032  0.93325462     0.17400
H1893       H  0.75344310  0.17719624  0.58112337     0.17400
F1894       F  0.75288604  0.12352185  0.57518025    -0.20400
C1895       C  0.60265743  0.39117224  0.54140739    -0.21800
C1896       C  0.59621788  0.37826587  0.99915150    -0.09900
C1897       C  0.61653910  0.39641422  0.96590046     0.29000
C1898       C  0.64375701  0.42619767  0.97371829    -0.21800
C1899       C  0.65140816  0.43819841  0.51693855    -0.09900
C1900       C  0.63114700  0.41999570  0.54997448     0.29000
F1901       F  0.63763759  0.43116180  0.58978208    -0.20400
H1902       H  0.58643982  0.37805053  0.56690373     0.17400
H1903       H  0.65843159  0.44066353  0.94761432     0.17400
F1904       F  0.60923208  0.38656050  0.92562718    -0.20400
C1905       C  0.85277792  0.14162928  0.53501321    -0.21800
C1906       C  0.84550615  0.13041611  0.99290246    -0.09900
C1907       C  0.86862698  0.14575060  0.96141617     0.29000
C1908       C  0.90060869  0.16540795  0.47375951    -0.21800
C1909       C  0.90776477  0.17841236  0.51412579    -0.09900
C1910       C  0.88356582  0.16668059  0.54469537     0.29000
F1911       F  0.88978845  0.17873439  0.58407446    -0.20400
H1912       H  0.83451432  0.13206976  0.55916767     0.17400
H1913       H  0.91888747  0.17448283  0.44964118     0.17400
F1914       F  0.86273294  0.13501607  0.92138632    -0.20400
C1915       C  0.88102659  0.06607684  0.64949099    -0.21800
C1916       C  0.88187894  0.03730999  0.65709616    -0.09900
C1917       C  0.86038018  0.00962844  0.63414752     0.29000
C1918       C  0.83730437  0.01005391  0.60743932    -0.21800
C1919       C  0.83431924  0.03776456  0.60337939    -0.09900
C1920       C  0.85732753  0.06624634  0.62352475     0.29000
F1921       F  0.85660273  0.09402497  0.61875690    -0.20400
H1922       H  0.89645313  0.08757080  0.66762181     0.17400
H1923       H  0.82083742  0.98811932  0.59071249     0.17400
F1924       F  0.85939953  0.98113365  0.64099273    -0.20400
C1925       C  0.84845782  0.03526699  0.88411558    -0.21800
C1926       C  0.81772960  0.03062684  0.87686270    -0.09900
C1927       C  0.80566338  0.02449753  0.83554406     0.29000
C1928       C  0.82451469  0.02452824  0.80235301    -0.21800
C1929       C  0.85586451  0.03039270  0.80931183    -0.09900
C1930       C  0.86707915  0.03477409  0.85112243     0.29000
F1931       F  0.89657522  0.03919705  0.86010781    -0.20400
H1932       H  0.85835922  0.03966364  0.91544636     0.17400
H1933       H  0.81400641  0.01967818  0.77152377     0.17400
F1934       F  0.77571249  0.01889264  0.82679747    -0.20400
C1935       C  0.83091502  0.38868660  0.69559214    -0.21800
C1936       C  0.86492120  0.40485150  0.69227083    -0.09900
C1937       C  0.87770593  0.40079668  0.65504377     0.29000
C1938       C  0.85715527  0.37921602  0.62398426    -0.21800
C1939       C  0.82329508  0.36099368  0.62922947    -0.09900
C1940       C  0.81048145  0.36679946  0.66511558     0.29000
F1941       F  0.77814750  0.35117517  0.67106235    -0.20400
H1942       H  0.81986589  0.39213380  0.72285327     0.17400
H1943       H  0.86793020  0.37583708  0.59637005     0.17400
F1944       F  0.91001478  0.41636074  0.64947693    -0.20400
C1945       C  0.86581228  0.41669900  0.87723326    -0.21800
C1946       C  0.87789754  0.40516055  0.84615177    -0.09900
C1947       C  0.86963871  0.37214673  0.84904045     0.29000
C1948       C  0.84840605  0.35121941  0.87997257    -0.21800
C1949       C  0.83591549  0.36287718  0.90993268    -0.09900
C1950       C  0.84552403  0.39603223  0.90882389     0.29000
F1951       F  0.83394198  0.40824868  0.93742633    -0.20400
H1952       H  0.87067082  0.44129104  0.87684530     0.17400
H1953       H  0.84187824  0.32598209  0.88058918     0.17400
F1954       F  0.88092558  0.35963806  0.82046642    -0.20400
C1955       C  0.53627640  0.40634611  0.66260441    -0.21800
C1956       C  0.99995148  0.41315551  0.65049846    -0.09900
C1957       C  0.97141115  0.39005067  0.63057863     0.29000
C1958       C  0.97158680  0.36780414  0.60269048    -0.21800
C1959       C  0.00001875  0.36754879  0.59468774    -0.09900
C1960       C  0.53187142  0.38223961  0.63410177     0.29000
F1961       F  0.55344684  0.37212836  0.63317177    -0.20400
H1962       H  0.55640040  0.41546845  0.68414006     0.17400
H1963       H  0.94901998  0.34947510  0.58896830     0.17400
F1964       F  0.94268966  0.38584337  0.64275021    -0.20400
C1965       C  0.51043252  0.41337885  0.85751857    -0.21800
C1966       C  0.49649305  0.40004801  0.81825439    -0.09900
C1967       C  0.48162180  0.36599340  0.81403199     0.29000
C1968       C  0.48218641  0.34664470  0.84680976    -0.21800
C1969       C  0.49703254  0.36036084  0.88517871    -0.09900
C1970       C  0.51070008  0.39396770  0.89031437     0.29000
F1971       F  0.00250084  0.39044823  0.91810322    -0.20400
H1972       H  0.00357315  0.41898277  0.84950842     0.17400
H1973       H  0.47120301  0.32078146  0.84189542     0.17400
F1974       F  0.46705506  0.35132385  0.77765898    -0.20400
C1975       C  0.61595373  0.01942985  0.64457710    -0.21800
C1976       C  0.62831919  0.04527802  0.67298786    -0.09900
C1977       C  0.66131897  0.06971617  0.66831183     0.29000
C1978       C  0.68149640  0.06705354  0.63859500    -0.21800
C1979       C  0.66938660  0.04044346  0.61148946    -0.09900
C1980       C  0.63591460  0.01725604  0.61405367     0.29000
F1981       F  0.62889407  0.49392717  0.59204725    -0.20400
H1982       H  0.59595659  0.50262895  0.64888874     0.17400
H1983       H  0.70658844  0.08597964  0.63666241     0.17400
F1984       F  0.67452789  0.09571454  0.69413788    -0.20400
C1985       C  0.63592238  0.05194906  0.85993441    -0.21800
C1986       C  0.62749450  0.03046811  0.82591489    -0.09900
C1987       C  0.64105041  0.01043302  0.82432065     0.29000
C1988       C  0.66238968  0.01224335  0.85532758    -0.21800
C1989       C  0.67050544  0.03378524  0.88877139    -0.09900
C1990       C  0.65671369  0.05326874  0.89111838     0.29000
F1991       F  0.66490296  0.07526391  0.92219204    -0.20400
H1992       H  0.62821747  0.06930376  0.86249595     0.17400
H1993       H  0.67297613  0.99711766  0.85283834     0.17400
F1994       F  0.63476211  0.99006727  0.79173610    -0.20400
C1995       C  0.64718984  0.21219663  0.63965390    -0.21800
C1996       C  0.66378285  0.20066652  0.61668752    -0.09900
C1997       C  0.65331564  0.16724594  0.61905824     0.29000
C1998       C  0.62903793  0.14669058  0.64732892    -0.21800
C1999       C  0.61432086  0.15891152  0.67304492    -0.09900
C2000       C  0.62235884  0.19149280  0.66689292     0.29000
F2001       F  0.60974787  0.20462729  0.69233398    -0.20400
H2002       H  0.65421492  0.23755491  0.63761583     0.17400
H2003       H  0.62423434  0.12220421  0.65224546     0.17400
F2004       F  0.66853381  0.15506941  0.59676753    -0.20400
C2005       C  0.66814997  0.19681999  0.82200596    -0.21800
C2006       C  0.63823113  0.16755695  0.82716951    -0.09900
C2007       C  0.62941880  0.15535562  0.86834287     0.29000
C2008       C  0.64859387  0.17254330  0.90264073    -0.21800
C2009       C  0.67754749  0.20237914  0.89744428    -0.09900
C2010       C  0.68748027  0.21388637  0.85646894     0.29000
F2011       F  0.71539877  0.24226911  0.84951289    -0.20400
H2012       H  0.67720342  0.20729939  0.79167984     0.17400
H2013       H  0.64017057  0.16267782  0.93363984     0.17400
F2014       F  0.60161474  0.12690928  0.87566406    -0.20400
C2015       C  0.99371152  0.18916730  0.69451034    -0.21800
C2016       C  0.00608291  0.16798514  0.69136500    -0.09900
C2017       C  0.53241935  0.19347850  0.66424768     0.29000
C2018       C  0.53109944  0.21448938  0.63419801    -0.21800
C2019       C  0.01195666  0.21143750  0.62445391    -0.09900
C2020       C  0.99699697  0.21076405  0.66217342     0.29000
F2021       F  0.98397535  0.22978428  0.66719509    -0.20400
H2022       H  0.98089019  0.18892493  0.72223753     0.17400
H2023       H  0.55013581  0.23973059  0.63321419     0.17400
F2024       F  0.55636615  0.20647468  0.69308683    -0.20400
C2025       C  0.97538852  0.15817534  0.85228377    -0.21800
C2026       C  0.49008720  0.16830183  0.82059394    -0.09900
C2027       C  0.49190335  0.16010872  0.86268424     0.29000
C2028       C  0.49305477  0.17998749  0.89505720    -0.21800
C2029       C  0.49095178  0.20755037  0.88634173    -0.09900
C2030       C  0.97587377  0.18028259  0.88066882     0.29000
F2031       F  0.94936441  0.18290858  0.88478691    -0.20400
H2032       H  0.95386915  0.14432346  0.83359371     0.17400
H2033       H  0.49627510  0.17416278  0.92683829     0.17400
F2034       F  0.49372333  0.13345244  0.87244935    -0.20400
C2035       C  0.50067465  0.63722635  0.30627333     0.86000
C2036       C  0.52457678  0.62620083  0.30299660    -0.54300
C2037       C  0.52860897  0.61721552  0.26401261     0.08900
C2038       C  0.00421472  0.61452660  0.23413586     0.19800
C2039       C  0.00976785  0.66179943  0.26919097    -0.55000
C2040       C  0.50468573  0.64782652  0.23039722     0.09000
C2041       C  0.97641589  0.60831485  0.30035118    -0.54500
C2042       C  0.97200004  0.59428654  0.26191406     0.09600
H2043       H  0.53846246  0.62629887  0.32976273     0.14100
H2044       H  0.00331043  0.60363896  0.20334409    -0.00200
H2045       H  0.01182574  0.68529400  0.27305427     0.14400
H2046       H  0.96022218  0.59713884  0.32660679     0.14200
C2047       C  0.62122917  0.65352935  0.28015391     0.86000
C2048       C  0.61643989  0.61986975  0.28371060    -0.54300
C2049       C  0.59424853  0.59616105  0.25775144     0.08900
C2050       C  0.57853425  0.61045999  0.22742268     0.19800
C2051       C  0.63032804  0.66247083  0.23501371    -0.55000
C2052       C  0.60845288  0.64100363  0.20698112     0.09000
C2053       C  0.58775887  0.64907876  0.28237997    -0.54500
C2054       C  0.56392909  0.62592592  0.25666071     0.09600
H2055       H  0.63272477  0.61696896  0.30411184     0.14100
H2056       H  0.56107658  0.59270757  0.20476371    -0.00200
H2057       H  0.65164701  0.68440751  0.22462901     0.14400
H2058       H  0.58398627  0.66444301  0.30339350     0.14200
C2059       C  0.61052505  0.52787742  0.28973915     0.86000
C2060       C  0.57734640  0.49879267  0.28361223    -0.54300
C2061       C  0.55832130  0.50176341  0.25343852     0.08900
C2062       C  0.57874195  0.53465113  0.22708520     0.19800
C2063       C  0.62630187  0.53173665  0.24771907    -0.55000
C2064       C  0.61098067  0.53561585  0.21448082     0.09000
C2065       C  0.60468460  0.55594043  0.29391400    -0.54500
C2066       C  0.59065877  0.56234681  0.26049443     0.09600
H2067       H  0.57553853  0.98183257  0.30215198     0.14100
H2068       H  0.56567675  0.53765767  0.20041609    -0.00200
H2069       H  0.64858671  0.53150665  0.24440403     0.14400
H2070       H  0.61174019  0.56955864  0.32271372     0.14200
C2071       C  0.49576736  0.91326017  0.27521967     0.86000
C2072       C  0.96570776  0.90852821  0.26997237    -0.54300
C2073       C  0.96619845  0.93312356  0.24634091     0.08900
C2074       C  0.50083862  0.95438151  0.21656424     0.19800
C2075       C  0.51150886  0.91085249  0.23579721    -0.55000
C2076       C  0.99766864  0.92043968  0.19607591     0.09000
C2077       C  0.51595649  0.94971702  0.28668642    -0.54500
C2078       C  0.52332667  0.97187105  0.25447987     0.09600
H2079       H  0.94550449  0.89167379  0.28922300     0.14100
H2080       H  0.50247302  0.97100608  0.19105970    -0.00200
H2081       H  0.51916344  0.89332067  0.23228912     0.14400
H2082       H  0.52720983  0.95706761  0.31700810     0.14200
C2083       C  0.89576901  0.92840402  0.30467842     0.86000
C2084       C  0.90410255  0.96324404  0.29994150    -0.54300
C2085       C  0.91362048  0.97705480  0.26059638     0.08900
C2086       C  0.91941032  0.95362697  0.23081262     0.19800
C2087       C  0.87402274  0.91011209  0.26766723    -0.55000
C2088       C  0.88516197  0.92230614  0.22886554     0.09000
C2089       C  0.92782417  0.93220030  0.29667984    -0.54500
C2090       C  0.94059600  0.94234821  0.25747469     0.09600
H2091       H  0.90192514  0.97618541  0.32601936     0.14100
H2092       H  0.92960783  0.96435379  0.19980633    -0.00200
H2093       H  0.85113655  0.88783892  0.27257964     0.14400
H2094       H  0.93937499  0.92640710  0.32174279     0.14200
C2095       C  0.87955522  0.53502052  0.27663481     0.86000
C2096       C  0.91298361  0.56489489  0.27895611    -0.54300
C2097       C  0.93683631  0.56632212  0.25364286     0.08900
C2098       C  0.92184559  0.53625157  0.22338618     0.19800
C2099       C  0.87006188  0.53520490  0.23195674    -0.55000
C2100       C  0.89159280  0.53672838  0.20317257     0.09000
C2101       C  0.88359157  0.50589572  0.27901314    -0.54500
C2102       C  0.90639928  0.50545366  0.25380216     0.09600
H2103       H  0.91626737  0.58447343  0.29901157     0.14100
H2104       H  0.93935618  0.53678679  0.20064981    -0.00200
H2105       H  0.84871377  0.53577340  0.22277607     0.14400
H2106       H  0.86720244  0.98501362  0.29737991     0.14200
O2107       O  0.75127125  0.59207471  0.45605526    -0.80700
O2108       O  0.78838736  0.54288485  0.08041233    -0.80700
O2109       O  0.68149173  0.53748594  0.04227326    -0.80700
O2110       O  0.80556805  0.57970458  0.51946690    -0.80600
O2111       O  0.72094115  0.54295908  0.08444389    -0.80800
O2112       O  0.80611285  0.59110071  0.45310666    -0.80700
O2113       O  0.81821291  0.53430559  0.03495291    -0.80700
O2114       O  0.74293374  0.58251527  0.01955736    -0.80700
C2115       C  0.75243898  0.60163509  0.49308823     1.09000
C2116       C  0.81336733  0.53972446  0.07199850     1.08900
C2117       C  0.69280997  0.54079900  0.07882051     1.09100
C2118       C  0.81751341  0.59945045  0.48962614     1.08900
O2119       O  0.77271197  0.52886918  0.41104242    -0.80700
O2120       O  0.69385236  0.97697298  0.04439832    -0.80700
O2121       O  0.69436945  0.54487209  0.46145421    -0.80700
O2122       O  0.76797989  0.99010987  0.98397477    -0.80600
O2123       O  0.74794751  0.97834833  0.04574963    -0.80700
O2124       O  0.71705412  0.52985719  0.41492851    -0.80700
O2125       O  0.81298536  0.54251892  0.45334848    -0.80600
O2126       O  0.68240393  0.99367269  0.98795276    -0.80700
Co2127     Co  0.76067554  0.55822749  0.43736242     1.51500
Co2128     Co  0.73885749  0.01372120  0.05306211     1.51700
Co2129     Co  0.71266165  0.53634575  0.00867150     1.51600
Co2130     Co  0.78503490  0.53436741  0.00414537     1.51500
O2131       O  0.74581656  0.53040917  0.98904679    -1.42600
C2132       C  0.80076141  0.53409848  0.41702882     1.09000
C2133       C  0.67643519  0.97107493  0.01252258     1.09100
C2134       C  0.69481138  0.53483950  0.42510252     1.09000
C2135       C  0.75520125  0.96997238  0.01264678     1.09000
O2136       O  0.49585771  0.74528024  0.41564579    -0.80700
O2137       O  0.94137463  0.77590596  0.05004477    -0.80700
O2138       O  0.96229719  0.71243271  0.00058724    -0.80700
O2139       O  0.50511121  0.84195917  0.44862301    -0.80600
O2140       O  0.94486547  0.72419782  0.05513717    -0.80800
O2141       O  0.49277750  0.80208401  0.40581955    -0.80700
O2142       O  0.94964577  0.79282065  0.98657587    -0.80700
O2143       O  0.01898844  0.72787937  0.47026619    -0.80700
C2144       C  0.50287890  0.72465142  0.42894881     1.09000
C2145       C  0.93065970  0.78032733  0.01641898     1.08900
C2146       C  0.93954466  0.70635351  0.02415339     1.09100
C2147       C  0.49625074  0.82978206  0.41245178     1.08900
O2148       O  0.55422258  0.83710162  0.44868616    -0.80700
O2149       O  0.00837953  0.75528180  0.09120971    -0.80700
O2150       O  0.54832113  0.78058155  0.02661479    -0.80700
O2151       O  0.49588331  0.85156769  0.03476987    -0.80600
O2152       O  0.00409484  0.81978630  0.07928004    -0.80700
O2153       O  0.55766452  0.78369907  0.45604110    -0.80700
O2154       O  0.54299204  0.83892246  0.01596316    -0.80600
O2155       O  0.00858514  0.71686214  0.05290386    -0.81600
Co2156     Co  0.52259505  0.79072841  0.43502466     1.51500
Co2157     Co  0.97901780  0.77062990  0.05982585     1.51700
Co2158     Co  0.00522199  0.74600575  0.01646629     1.51600
Co2159     Co  0.49640311  0.81822893  0.00517981     1.51500
O2160       O  0.99554133  0.77639630  0.99242454    -1.42600
C2161       C  0.56291418  0.84775584  0.48533772     1.09000
C2162       C  0.00897342  0.72817938  0.08855109     1.09100
C2163       C  0.56779829  0.78442090  0.49293959     1.09000
C2164       C  0.99883408  0.84334330  0.06887304     1.09000
O2165       O  0.70084308  0.78882262  0.45872778    -0.80700
O2166       O  0.77394437  0.81017550  0.10517672    -0.80700
O2167       O  0.69196469  0.71400953  0.04551967    -0.80700
O2168       O  0.77208023  0.84781441  0.02669697    -0.80600
O2169       O  0.71255286  0.74891802  0.09715200    -0.80800
O2170       O  0.75545714  0.84197435  0.46455128    -0.80700
O2171       O  0.81385087  0.83591209  0.06094299    -0.80700
O2172       O  0.68262858  0.75943167  0.01593965    -0.80700
C2173       C  0.68160214  0.77665107  0.48871213     1.09000
C2174       C  0.80234017  0.83381544  0.09713532     1.08900
C2175       C  0.69054266  0.72162419  0.08282737     1.09100
C2176       C  0.76200311  0.85668229  0.49852415     1.08900
O2177       O  0.79309590  0.81667781  0.43415225    -0.80700
O2178       O  0.74729475  0.72396815  0.05393400    -0.80700
O2179       O  0.68713214  0.71534877  0.46131321    -0.80700
O2180       O  0.80404220  0.79110080  0.99464967    -0.80600
O2181       O  0.80294740  0.77930452  0.06094086    -0.80700
O2182       O  0.72816709  0.75273577  0.42426357    -0.80700
O2183       O  0.82442404  0.85528878  0.47931104    -0.80600
O2184       O  0.74237792  0.73025610  0.98688822    -0.80700
Co2185     Co  0.74560902  0.79740527  0.45471871     1.51500
Co2186     Co  0.75798604  0.76709695  0.07615683     1.51700
Co2187     Co  0.71276270  0.74583369  0.99907512     1.51600
Co2188     Co  0.78738406  0.81966187  0.00858914     1.51500
O2189       O  0.74675933  0.78409502  0.02259857    -1.42600
C2190       C  0.81823623  0.84507333  0.44212598     1.09000
C2191       C  0.74917771  0.71709164  0.01629219     1.09100
C2192       C  0.70015185  0.72601490  0.42602154     1.09000
C2193       C  0.81397828  0.78130590  0.02445809     1.09000
C2194       C  0.62317716  0.80539258  0.46758387    -0.21800
C2195       C  0.59965672  0.78806981  0.49806328    -0.09900
C2196       C  0.60495710  0.77491711  0.03246868     0.29000
C2197       C  0.63182009  0.77134891  0.02987914    -0.21800
C2198       C  0.65457570  0.78234015  0.49331989    -0.09900
C2199       C  0.65048885  0.80272182  0.46518358     0.29000
F2200       F  0.67210361  0.81908409  0.43429647    -0.20400
H2201       H  0.61963825  0.81986343  0.44430493     0.17400
H2202       H  0.63536738  0.75730794  0.05377618     0.17400
F2203       F  0.58389423  0.76013025  0.06437058    -0.20400
C2204       C  0.84863521  0.76101747  0.05081322    -0.21800
C2205       C  0.84011072  0.77471697  0.01799473    -0.09900
C2206       C  0.86267754  0.78837712  0.48307405     0.29000
C2207       C  0.89127611  0.78808970  0.48111967    -0.21800
C2208       C  0.89757573  0.77393966  0.01436808    -0.09900
C2209       C  0.87708105  0.76054779  0.04915049     0.29000
F2210       F  0.88532487  0.74882682  0.08277771    -0.20400
H2211       H  0.83411349  0.75214252  0.07885076     0.17400
H2212       H  0.90679241  0.79895822  0.45423850     0.17400
F2213       F  0.85516846  0.80194319  0.45084790    -0.20400
C2214       C  0.75091005  0.92154950  0.04552652    -0.21800
C2215       C  0.75136804  0.93827243  0.00913032    -0.09900
C2216       C  0.75117737  0.92588813  0.96961549     0.29000
C2217       C  0.75198591  0.89760075  0.46774906    -0.21800
C2218       C  0.75608422  0.88310004  0.50360610    -0.09900
C2219       C  0.75506232  0.89447400  0.54345963     0.29000
F2220       F  0.75770645  0.87995788  0.57867961    -0.20400
H2221       H  0.75080536  0.93086512  0.07621116     0.17400
H2222       H  0.75220325  0.88874272  0.43679327     0.17400
F2223       F  0.75067220  0.94123945  0.93396424    -0.20400
C2224       C  0.76502417  0.65558760  0.46641567    -0.21800
C2225       C  0.76007874  0.63489714  0.50055540    -0.09900
C2226       C  0.76416946  0.64869405  0.03462995     0.29000
C2227       C  0.76368274  0.67708510  0.04086992    -0.21800
C2228       C  0.75665199  0.69175356  0.00751134    -0.09900
C2229       C  0.76520295  0.68441322  0.47218551     0.29000
F2230       F  0.76833172  0.70311266  0.43835418    -0.20400
H2231       H  0.76684593  0.64860920  0.43491491     0.17400
H2232       H  0.76706602  0.68654514  0.07228209     0.17400
F2233       F  0.76933095  0.63408386  0.06785838    -0.20400
C2234       C  0.61070874  0.88368078  0.02602478    -0.21800
C2235       C  0.59477723  0.87583030  0.49382240    -0.09900
C2236       C  0.61674611  0.89250486  0.46139370     0.29000
C2237       C  0.64407830  0.92242341  0.46932538    -0.21800
C2238       C  0.64890511  0.93869995  0.00426627    -0.09900
C2239       C  0.63900362  0.91306952  0.03317085     0.29000
F2240       F  0.65596667  0.91660990  0.06870362    -0.20400
H2241       H  0.60252166  0.86441399  0.04915397     0.17400
H2242       H  0.66021549  0.93584799  0.44379417     0.17400
F2243       F  0.61122493  0.88077890  0.42186200    -0.20400
C2244       C  0.85076293  0.64539504  0.03145068    -0.21800
C2245       C  0.84689555  0.63044362  0.49699721    -0.09900
C2246       C  0.86953415  0.64578348  0.46490457     0.29000
C2247       C  0.90173833  0.66379981  0.97604893    -0.21800
C2248       C  0.90719531  0.67955539  0.01461243    -0.09900
C2249       C  0.88132760  0.67057548  0.04207235     0.29000
F2250       F  0.88558566  0.68545966  0.07942041    -0.20400
H2251       H  0.83119756  0.63779460  0.05347511     0.17400
H2252       H  0.92123309  0.67048309  0.95424338     0.17400
F2253       F  0.86282904  0.63509999  0.42489241    -0.20400
C2254       C  0.88214157  0.57008945  0.15172569    -0.21800
C2255       C  0.88388130  0.54180739  0.15940944    -0.09900
C2256       C  0.86375123  0.51419146  0.13556905     0.29000
C2257       C  0.84092997  0.51407583  0.10786397    -0.21800
C2258       C  0.83687109  0.54114005  0.10377364    -0.09900
C2259       C  0.85861180  0.56965846  0.12486497     0.29000
F2260       F  0.85676620  0.59683223  0.12016781    -0.20400
H2261       H  0.89662640  0.59152766  0.17041443     0.17400
H2262       H  0.82534502  0.49213403  0.09058638     0.17400
F2263       F  0.86375713  0.48619452  0.14240374    -0.20400
C2264       C  0.84953169  0.53519303  0.38789222    -0.21800
C2265       C  0.81961119  0.53262426  0.38114737    -0.09900
C2266       C  0.80870979  0.53031415  0.33951527     0.29000
C2267       C  0.82757804  0.53118863  0.30577004    -0.21800
C2268       C  0.85783989  0.53419300  0.31237065    -0.09900
C2269       C  0.86822239  0.53569371  0.35426464     0.29000
F2270       F  0.89684079  0.53786728  0.36278086    -0.20400
H2271       H  0.85863132  0.53693436  0.41936978     0.17400
H2272       H  0.81794037  0.52929323  0.27476426     0.17400
F2273       F  0.77995651  0.52781687  0.33103979    -0.20400
C2274       C  0.83028378  0.88634230  0.19560785    -0.21800
C2275       C  0.86430749  0.90436228  0.19136042    -0.09900
C2276       C  0.87714624  0.90096955  0.15374877     0.29000
C2277       C  0.85682963  0.87861902  0.12317025    -0.21800
C2278       C  0.82312317  0.85879532  0.12921056    -0.09900
C2279       C  0.81014558  0.86353478  0.16571801     0.29000
F2280       F  0.77795167  0.84601807  0.17286267    -0.20400
H2281       H  0.81896802  0.88915210  0.22303882     0.17400
H2282       H  0.86776765  0.87609548  0.09512673     0.17400
F2283       F  0.90937304  0.91806949  0.14717596    -0.20400
C2284       C  0.86756691  0.92017880  0.37583650    -0.21800
C2285       C  0.87978289  0.90893516  0.34464102    -0.09900
C2286       C  0.87271309  0.87632087  0.34755084     0.29000
C2287       C  0.85247441  0.85533873  0.37883840    -0.21800
C2288       C  0.83984106  0.86659308  0.40894228    -0.09900
C2289       C  0.84813401  0.89936897  0.40780058     0.29000
F2290       F  0.83590140  0.91087233  0.43648705    -0.20400
H2291       H  0.87158826  0.94447743  0.37511484     0.17400
H2292       H  0.84663364  0.83030605  0.37946646     0.17400
F2293       F  0.88381661  0.86408737  0.31833627    -0.20400
C2294       C  0.54152868  0.91282263  0.15589347    -0.21800
C2295       C  0.00047506  0.91425919  0.15170949    -0.09900
C2296       C  0.97188193  0.89082264  0.13230029     0.29000
C2297       C  0.97193891  0.86772445  0.10602447    -0.21800
C2298       C  0.00039257  0.86737377  0.09862753    -0.09900
C2299       C  0.53777623  0.88919530  0.12703898     0.29000
F2300       F  0.56044353  0.88054806  0.12481739    -0.20400
H2301       H  0.56166924  0.92228641  0.17744558     0.17400
H2302       H  0.94932921  0.84904695  0.09279156     0.17400
F2303       F  0.94321348  0.88706687  0.14395540    -0.20400
C2304       C  0.49414765  0.89847791  0.35330108    -0.21800
C2305       C  0.49231010  0.88945223  0.31101532    -0.09900
C2306       C  0.48644641  0.85774779  0.30341515     0.29000
C2307       C  0.48707660  0.83825866  0.33629474    -0.21800
C2308       C  0.49221304  0.84899093  0.37796295    -0.09900
C2309       C  0.49461959  0.87902940  0.38603545     0.29000
F2310       F  0.99708190  0.88653766  0.41894542    -0.20400
H2311       H  0.99562968  0.91483068  0.35121107     0.17400
H2312       H  0.48388389  0.81477793  0.32894198     0.17400
F2313       F  0.47974753  0.84513595  0.26437460    -0.20400
C2314       C  0.61800146  0.51536055  0.14555854    -0.21800
C2315       C  0.62794953  0.54133764  0.17320686    -0.09900
C2316       C  0.66003459  0.56783019  0.16927500     0.29000
C2317       C  0.68166593  0.56758180  0.13988817    -0.21800
C2318       C  0.67188928  0.54102271  0.11329735    -0.09900
C2319       C  0.63940784  0.51533268  0.11579047     0.29000
F2320       F  0.63457789  0.98181527  0.09677481    -0.20400
H2321       H  0.59518819  0.98519988  0.14844291     0.17400
H2322       H  0.70600945  0.58813081  0.13796138     0.17400
F2323       F  0.67111915  0.59309048  0.19614756    -0.20400
C2324       C  0.61947693  0.50536989  0.35947681    -0.21800
C2325       C  0.63147094  0.52796085  0.32597849    -0.09900
C2326       C  0.66393197  0.55356232  0.32786636     0.29000
C2327       C  0.68399217  0.55526246  0.36032392    -0.21800
C2328       C  0.67212669  0.53255763  0.39284310    -0.09900
C2329       C  0.63966087  0.50778476  0.39279030     0.29000
F2330       F  0.62766577  0.48577181  0.42453768    -0.20400
H2331       H  0.59452979  0.48630476  0.36097724     0.17400
H2332       H  0.70896651  0.57472151  0.36033562     0.17400
F2333       F  0.67639361  0.57732364  0.29824314    -0.20400
C2334       C  0.64091227  0.70325599  0.12583704    -0.21800
C2335       C  0.66398400  0.69713815  0.10911606    -0.09900
C2336       C  0.66039555  0.66631006  0.11537285     0.29000
C2337       C  0.63645392  0.64356706  0.14216355    -0.21800
C2338       C  0.61552380  0.65107439  0.16271117    -0.09900
C2339       C  0.61639464  0.68012347  0.15164643     0.29000
F2340       F  0.59697166  0.68845162  0.17161661    -0.20400
H2341       H  0.64254551  0.72636365  0.12011294     0.17400
H2342       H  0.63688514  0.62187797  0.15084813     0.17400
F2343       F  0.68179090  0.65926888  0.09840589    -0.20400
C2344       C  0.63299629  0.66365561  0.35692477    -0.21800
C2345       C  0.64360054  0.67497101  0.31597152    -0.09900
C2346       C  0.67443806  0.70341542  0.31161203     0.29000
C2347       C  0.69326252  0.71939428  0.34717280    -0.21800
C2348       C  0.68231259  0.70751021  0.38779986    -0.09900
C2349       C  0.65182711  0.67908431  0.39192186     0.29000
F2350       F  0.63958673  0.66598332  0.42999468    -0.20400
H2351       H  0.60974427  0.64193306  0.36190549     0.17400
H2352       H  0.71634207  0.74141868  0.34284900     0.17400
F2353       F  0.68695900  0.71631875  0.27375592    -0.20400
C2354       C  0.99067033  0.65519104  0.15839112    -0.21800
C2355       C  0.01181541  0.66927675  0.19221439    -0.09900
C2356       C  0.51910014  0.66797305  0.15378978     0.29000
C2357       C  0.52123523  0.68913103  0.12098053    -0.21800
C2358       C  0.00972174  0.70885928  0.12553852    -0.09900
C2359       C  0.98968834  0.67453965  0.12554409     0.29000
F2360       F  0.96819801  0.65960278  0.09409188    -0.20400
H2361       H  0.97396982  0.62922664  0.15809275     0.17400
H2362       H  0.53142653  0.68797700  0.09145983     0.17400
F2363       F  0.53079013  0.64794314  0.14759750    -0.20400
C2364       C  0.97816505  0.65978119  0.35291776    -0.21800
C2365       C  0.49937732  0.65393796  0.34565789    -0.09900
C2366       C  0.52664471  0.67265189  0.37114792     0.29000
C2367       C  0.52659977  0.69436070  0.39969655    -0.21800
C2368       C  0.50051474  0.69935206  0.40173916    -0.09900
C2369       C  0.97820276  0.68094160  0.38229668     0.29000
F2370       F  0.95191446  0.68402789  0.38587172    -0.20400
H2371       H  0.95718351  0.64695137  0.33300180     0.17400
H2372       H  0.54799451  0.70899429  0.41835437     0.17400
F2373       F  0.55448811  0.67266272  0.36648717    -0.20400
C2374       C  0.49839151  0.63934442  0.80610682     0.86000
C2375       C  0.52269476  0.62871805  0.80293357    -0.54300
C2376       C  0.52644438  0.61897352  0.76432833     0.08900
C2377       C  0.00436843  0.61307624  0.73566254     0.19800
C2378       C  0.00831273  0.66004143  0.76942833    -0.55000
C2379       C  0.50153652  0.64778454  0.72981122     0.09000
C2380       C  0.97760018  0.60692685  0.80277283    -0.54500
C2381       C  0.97300735  0.59213898  0.76479728     0.09600
H2382       H  0.53631684  0.62845276  0.82967764     0.14100
H2383       H  0.00334631  0.60173352  0.70519940    -0.00200
H2384       H  0.01112289  0.68389534  0.77290945     0.14400
H2385       H  0.96203893  0.59596189  0.82961589     0.14200
C2386       C  0.61903965  0.65406875  0.77856659     0.86000
C2387       C  0.61417403  0.62027551  0.77914475    -0.54300
C2388       C  0.59110240  0.59748244  0.75295153     0.08900
C2389       C  0.57579290  0.61313312  0.72448308     0.19800
C2390       C  0.62786717  0.66470900  0.73379250    -0.55000
C2391       C  0.60592845  0.64433663  0.70498536     0.09000
C2392       C  0.58565476  0.64957073  0.78244871    -0.54500
C2393       C  0.56157225  0.62747695  0.75610605     0.09600
H2394       H  0.62957955  0.61563947  0.79925689     0.14100
H2395       H  0.55802465  0.59619651  0.70142053    -0.00200
H2396       H  0.64967124  0.68646656  0.72417718     0.14400
H2397       H  0.58231711  0.66434487  0.80499652     0.14200
C2398       C  0.60889047  0.53324276  0.78869970     0.86000
C2399       C  0.57993752  0.50130536  0.77650191    -0.54300
C2400       C  0.56019438  0.50249686  0.74589299     0.08900
C2401       C  0.57853465  0.53715094  0.72247760     0.19800
C2402       C  0.62936248  0.54415261  0.74965550    -0.55000
C2403       C  0.61427170  0.54496073  0.71407428     0.09000
C2404       C  0.59511434  0.55571276  0.79306010    -0.54500
C2405       C  0.58355774  0.56221850  0.75727110     0.09600
H2406       H  0.57489734  0.97726612  0.79622744     0.14100
H2407       H  0.56582865  0.53850312  0.69421639    -0.00200
H2408       H  0.65374422  0.54841583  0.74969860     0.14400
H2409       H  0.59573750  0.56755090  0.82182905     0.14200
C2410       C  0.49290041  0.91121380  0.77462409     0.86000
C2411       C  0.96758207  0.90889019  0.77003026    -0.54300
C2412       C  0.96787610  0.93345006  0.74690296     0.08900
C2413       C  0.50040382  0.95141326  0.71329428     0.19800
C2414       C  0.50785165  0.90635157  0.73619188    -0.55000
C2415       C  0.00065688  0.92168926  0.69705197     0.09000
C2416       C  0.51493055  0.94800185  0.78396015    -0.54500
C2417       C  0.52327718  0.96937471  0.75038584     0.09600
H2418       H  0.94699835  0.89112380  0.78801973     0.14100
H2419       H  0.50297794  0.96755968  0.68666005    -0.00200
H2420       H  0.51400589  0.88756805  0.73452069     0.14400
H2421       H  0.52659799  0.95592944  0.81397753     0.14200
C2422       C  0.89587552  0.92736290  0.80490021     0.86000
C2423       C  0.90576371  0.96280075  0.80131420    -0.54300
C2424       C  0.91565403  0.97711899  0.76225745     0.08900
C2425       C  0.92095032  0.95379410  0.73189297     0.19800
C2426       C  0.87431738  0.91041230  0.76726786    -0.55000
C2427       C  0.88635963  0.92322207  0.72901356     0.09000
C2428       C  0.92744793  0.92992363  0.79679508    -0.54500
C2429       C  0.94114327  0.94118349  0.75805167     0.09600
H2430       H  0.90382580  0.97562813  0.82773184     0.14100
H2431       H  0.93158455  0.96484033  0.70115933    -0.00200
H2432       H  0.85087633  0.88857092  0.77114074     0.14400
H2433       H  0.93825128  0.92320345  0.82181183     0.14200
C2434       C  0.88018147  0.53203132  0.77906111     0.86000
C2435       C  0.91391543  0.56136808  0.78314203    -0.54300
C2436       C  0.93791563  0.56345273  0.75738374     0.08900
C2437       C  0.92296867  0.53410007  0.72589475     0.19800
C2438       C  0.87165813  0.53376153  0.73432819    -0.55000
C2439       C  0.89334403  0.53567972  0.70564693     0.09000
C2440       C  0.88360684  0.50249973  0.78014382    -0.54500
C2441       C  0.90668209  0.50243753  0.75498892     0.09600
H2442       H  0.91703241  0.58030830  0.80423652     0.14100
H2443       H  0.94063830  0.53495979  0.70316307    -0.00200
H2444       H  0.85061848  0.53477661  0.72491825     0.14400
H2445       H  0.86864841  0.98402489  0.79947834     0.14200
O2446       O  0.74961140  0.59150497  0.95212962    -0.80700
O2447       O  0.78980052  0.54143616  0.58278932    -0.80700
O2448       O  0.68303260  0.53685965  0.54529921    -0.80700
O2449       O  0.80300240  0.58024000  0.01655433    -0.80600
O2450       O  0.72284643  0.54316388  0.58740105    -0.80800
O2451       O  0.80437139  0.59055629  0.94970752    -0.80700
O2452       O  0.81934620  0.53259185  0.53702861    -0.80700
O2453       O  0.74434759  0.58186325  0.52306318    -0.80700
C2454       C  0.75078611  0.60167453  0.98883006     1.09000
C2455       C  0.81467215  0.53807239  0.57417420     1.08900
C2456       C  0.69483136  0.54134211  0.58169093     1.09100
C2457       C  0.81556094  0.59929573  0.98626894     1.08900
O2458       O  0.77125345  0.52797404  0.90860764    -0.80700
O2459       O  0.69256493  0.97665988  0.54891312    -0.80700
O2460       O  0.69331806  0.54523003  0.95828926    -0.80700
O2461       O  0.76697185  0.98926419  0.48598715    -0.80600
O2462       O  0.74653644  0.97741512  0.54774398    -0.80700
O2463       O  0.71480865  0.52886422  0.91185665    -0.80700
O2464       O  0.81140135  0.54256238  0.95159148    -0.80600
O2465       O  0.68170155  0.98956005  0.48901126    -0.80700
Co2466     Co  0.75885768  0.55744512  0.93413718     1.51500
Co2467     Co  0.73782512  0.01320659  0.55580810     1.51700
Co2468     Co  0.71415115  0.53593155  0.51142447     1.51600
Co2469     Co  0.78667657  0.53374874  0.50625974     1.51500
O2470       O  0.74755784  0.53057194  0.49168080    -1.42600
C2471       C  0.79929393  0.53324677  0.91540908     1.09000
C2472       C  0.67607726  0.96854346  0.51597364     1.09100
C2473       C  0.69306631  0.53474371  0.92194295     1.09000
C2474       C  0.75395190  0.96907696  0.51460297     1.09000
O2475       O  0.49309764  0.74589547  0.91988880    -0.80700
O2476       O  0.94474656  0.77863429  0.55065111    -0.80700
O2477       O  0.96374715  0.71262154  0.50171411    -0.80700
O2478       O  0.50205770  0.84276494  0.95116251    -0.80600
O2479       O  0.94668101  0.72627609  0.55518392    -0.80800
O2480       O  0.48901974  0.80208994  0.90938663    -0.80700
O2481       O  0.95271854  0.79484486  0.48687488    -0.80700
O2482       O  0.01700135  0.72759965  0.96912301    -0.80700
C2483       C  0.50082806  0.72567133  0.93255095     1.09000
C2484       C  0.93391835  0.78271927  0.51695826     1.08900
C2485       C  0.94110215  0.70780342  0.52484345     1.09100
C2486       C  0.49239711  0.82985118  0.91544505     1.08900
O2487       O  0.55120543  0.83844190  0.94913209    -0.80700
O2488       O  0.00945618  0.75544707  0.59210212    -0.80700
O2489       O  0.54931874  0.77813578  0.52379752    -0.80700
O2490       O  0.49672379  0.84942102  0.53188522    -0.80600
O2491       O  0.00805742  0.82149876  0.57857781    -0.80700
O2492       O  0.55587103  0.78575867  0.95864688    -0.80700
O2493       O  0.54314250  0.83551788  0.51471346    -0.80600
O2494       O  0.01112898  0.71787053  0.55371856    -0.81600
Co2495     Co  0.51991713  0.79171415  0.93782752     1.51500
Co2496     Co  0.98166396  0.77222940  0.55970842     1.51700
Co2497     Co  0.00680959  0.74652416  0.51713703     1.51600
Co2498     Co  0.49720274  0.81612939  0.50187925     1.51500
O2499       O  0.99728546  0.77686042  0.49210316    -1.42600
C2500       C  0.56119160  0.85047628  0.98487198     1.09000
C2501       C  0.01128638  0.72901674  0.58937865     1.09100
C2502       C  0.56653526  0.78702625  0.99546637     1.09000
C2503       C  0.00341619  0.84547096  0.56818412     1.09000
O2504       O  0.69763713  0.78811069  0.95985081    -0.80700
O2505       O  0.77610258  0.81222892  0.60509271    -0.80700
O2506       O  0.69534118  0.71505946  0.54582894    -0.80700
O2507       O  0.77473206  0.84907411  0.52667088    -0.80600
O2508       O  0.71488017  0.75073786  0.59675799    -0.80800
O2509       O  0.75263583  0.84071612  0.96466803    -0.80700
O2510       O  0.81643193  0.83735901  0.56147220    -0.80700
O2511       O  0.68556356  0.75903962  0.51388761    -0.80700
C2512       C  0.67896178  0.77715542  0.99060262     1.09000
C2513       C  0.80461510  0.83564801  0.59728359     1.08900
C2514       C  0.69301820  0.72327330  0.58253404     1.09100
C2515       C  0.75951716  0.85556778  0.99849493     1.08900
O2516       O  0.78951739  0.81515436  0.93323677    -0.80700
O2517       O  0.75040821  0.72580582  0.55585419    -0.80700
O2518       O  0.68225955  0.71523301  0.96136098    -0.80700
O2519       O  0.80710648  0.79263555  0.49580387    -0.80600
O2520       O  0.80589203  0.78107721  0.56225297    -0.80700
O2521       O  0.72421183  0.75152934  0.92458484    -0.80700
O2522       O  0.82127118  0.85379926  0.97809020    -0.80600
O2523       O  0.74710943  0.73133957  0.48826681    -0.80700
Co2524     Co  0.74225809  0.79613151  0.95496746     1.51500
Co2525     Co  0.76066605  0.76898280  0.57681805     1.51700
Co2526     Co  0.71674755  0.74640384  0.49882293     1.51600
Co2527     Co  0.79029760  0.82104321  0.50905175     1.51500
O2528       O  0.74967206  0.78530851  0.52246353    -1.42600
C2529       C  0.81489095  0.84349029  0.94091578     1.09000
C2530       C  0.75322631  0.71850793  0.51880605     1.09100
C2531       C  0.69591272  0.72522582  0.92621941     1.09000
C2532       C  0.81713400  0.78315513  0.52582623     1.09000
C2533       C  0.62120109  0.80652685  0.96827515    -0.21800
C2534       C  0.59866369  0.79120043  0.00040179    -0.09900
C2535       C  0.60479936  0.76958925  0.52805812     0.29000
C2536       C  0.63207804  0.76675112  0.52557558    -0.21800
C2537       C  0.65286845  0.78425173  0.99565046    -0.09900
C2538       C  0.64817441  0.80328334  0.96589057     0.29000
F2539       F  0.66868011  0.81749880  0.93330302    -0.20400
H2540       H  0.61701374  0.81962428  0.94364254     0.17400
H2541       H  0.63488858  0.75126137  0.54793235     0.17400
F2542       F  0.58230431  0.75211233  0.55755532    -0.20400
C2543       C  0.85147354  0.76203527  0.55111182    -0.21800
C2544       C  0.84350114  0.77697182  0.51928054    -0.09900
C2545       C  0.85872945  0.78477908  0.98127182     0.29000
C2546       C  0.88739398  0.78447308  0.97964961    -0.21800
C2547       C  0.90088716  0.77625428  0.51495339    -0.09900
C2548       C  0.87987320  0.76144300  0.54897066     0.29000
F2549       F  0.88747398  0.74794244  0.58123901    -0.20400
H2550       H  0.83644588  0.75208027  0.57858601     0.17400
H2551       H  0.90248710  0.79426063  0.95220865     0.17400
F2552       F  0.85054409  0.79695037  0.94810030    -0.20400
C2553       C  0.75203917  0.92158019  0.54704093    -0.21800
C2554       C  0.75042035  0.93745397  0.51096107    -0.09900
C2555       C  0.74928384  0.92477838  0.47130622     0.29000
C2556       C  0.75262871  0.89801147  0.96665178    -0.21800
C2557       C  0.75458325  0.88256889  0.00295971    -0.09900
C2558       C  0.75269555  0.89372543  0.04253169     0.29000
F2559       F  0.75320874  0.87822000  0.07801816    -0.20400
H2560       H  0.75278897  0.93117701  0.57782305     0.17400
H2561       H  0.75361773  0.88932746  0.93586893     0.17400
F2562       F  0.74676736  0.93931741  0.43601493    -0.20400
C2563       C  0.75439877  0.65147590  0.96062954    -0.21800
C2564       C  0.75773522  0.63481048  0.99474781    -0.09900
C2565       C  0.75909843  0.64516905  0.54118472     0.29000
C2566       C  0.75937769  0.67392581  0.54690004    -0.21800
C2567       C  0.76044933  0.69271960  0.51235404    -0.09900
C2568       C  0.75377549  0.67976026  0.96684243     0.29000
F2569       F  0.74812413  0.69388417  0.93348082    -0.20400
H2570       H  0.75002914  0.64149167  0.92942500     0.17400
H2571       H  0.75661690  0.68029190  0.57835999     0.17400
F2572       F  0.75570647  0.62657257  0.57524467    -0.20400
C2573       C  0.60218382  0.88797201  0.53474749    -0.21800
C2574       C  0.59268781  0.87943880  0.98967032    -0.09900
C2575       C  0.60368229  0.90419488  0.95954273     0.29000
C2576       C  0.63153138  0.93364239  0.96694050    -0.21800
C2577       C  0.64998743  0.93549690  0.50961449    -0.09900
C2578       C  0.62966331  0.91765329  0.54269095     0.29000
F2579       F  0.63498695  0.92997840  0.58190053    -0.20400
H2580       H  0.58591585  0.87528380  0.56038728     0.17400
H2581       H  0.63894139  0.95282371  0.94383029     0.17400
F2582       F  0.58639929  0.90075588  0.92432035    -0.20400
C2583       C  0.85452056  0.64240142  0.53791157    -0.21800
C2584       C  0.84566663  0.62934592  0.99329303    -0.09900
C2585       C  0.87116707  0.63895351  0.96528617     0.29000
C2586       C  0.90021247  0.67110999  0.47447428    -0.21800
C2587       C  0.90845588  0.68171279  0.51580191    -0.09900
C2588       C  0.88508720  0.66808830  0.54731810     0.29000
F2589       F  0.89215750  0.67849767  0.58740235    -0.20400
H2590       H  0.83716359  0.63103868  0.56293058     0.17400
H2591       H  0.91769065  0.68225472  0.44960009     0.17400
F2592       F  0.86705123  0.62290780  0.92889086    -0.20400
C2593       C  0.88268371  0.56898941  0.65540604    -0.21800
C2594       C  0.88584988  0.54138733  0.66195322    -0.09900
C2595       C  0.86710101  0.51423278  0.63670964     0.29000
C2596       C  0.84424677  0.51377768  0.60866907    -0.21800
C2597       C  0.83860304  0.53991410  0.60577407    -0.09900
C2598       C  0.85891389  0.56805663  0.62851940     0.29000
F2599       F  0.85542289  0.59435411  0.62546067    -0.20400
H2600       H  0.89603016  0.59001569  0.67518331     0.17400
H2601       H  0.82973807  0.49214599  0.59032177     0.17400
F2602       F  0.86838675  0.48681516  0.64244318    -0.20400
C2603       C  0.84732752  0.53141809  0.88899648    -0.21800
C2604       C  0.81840909  0.53071699  0.88069066    -0.09900
C2605       C  0.80884151  0.52924210  0.83864539     0.29000
C2606       C  0.82811267  0.52935715  0.80597102    -0.21800
C2607       C  0.85759106  0.53083514  0.81397894    -0.09900
C2608       C  0.86644912  0.53113796  0.85635600     0.29000
F2609       F  0.89407764  0.53164894  0.86630881    -0.20400
H2610       H  0.85532416  0.53235977  0.92092707     0.17400
H2611       H  0.81933776  0.52827822  0.77466560     0.17400
F2612       F  0.78115315  0.52858847  0.82870514    -0.20400
C2613       C  0.83220498  0.89073411  0.69323522    -0.21800
C2614       C  0.86622427  0.90630232  0.69092144    -0.09900
C2615       C  0.87944059  0.90055554  0.65540725     0.29000
C2616       C  0.85922649  0.87818567  0.62492916    -0.21800
C2617       C  0.82526972  0.86072318  0.62911131    -0.09900
C2618       C  0.81204225  0.86797795  0.66330968     0.29000
F2619       F  0.77963256  0.85298882  0.66809497    -0.20400
H2620       H  0.82098611  0.89525977  0.71942582     0.17400
H2621       H  0.87033121  0.87361758  0.59863702     0.17400
F2622       F  0.91181916  0.91502396  0.65127317    -0.20400
C2623       C  0.86567830  0.91860470  0.87468902    -0.21800
C2624       C  0.87866723  0.90746203  0.84434428    -0.09900
C2625       C  0.87083182  0.87458908  0.84717795     0.29000
C2626       C  0.84975487  0.85354044  0.87795622    -0.21800
C2627       C  0.83670637  0.86483735  0.90749807    -0.09900
C2628       C  0.84525379  0.89769125  0.90599582     0.29000
F2629       F  0.83244827  0.90924238  0.93376994    -0.20400
H2630       H  0.86985332  0.94296246  0.87367870     0.17400
H2631       H  0.84369968  0.82844401  0.87872429     0.17400
F2632       F  0.88227317  0.86226454  0.81856264    -0.20400
C2633       C  0.53879141  0.90471594  0.65928197    -0.21800
C2634       C  0.00277648  0.91469622  0.65264973    -0.09900
C2635       C  0.97428311  0.88946029  0.63503664     0.29000
C2636       C  0.97521222  0.86701542  0.60836771    -0.21800
C2637       C  0.00445793  0.86905549  0.59849228    -0.09900
C2638       C  0.53539980  0.88194426  0.62938842     0.29000
F2639       F  0.55522720  0.86966168  0.63086049    -0.20400
H2640       H  0.55668571  0.91116483  0.68366066     0.17400
H2641       H  0.95273788  0.84704296  0.59662854     0.17400
F2642       F  0.94524462  0.88342296  0.64893650    -0.20400
C2643       C  0.49244734  0.89881088  0.85373720    -0.21800
C2644       C  0.48820879  0.88799384  0.81196014    -0.09900
C2645       C  0.47932524  0.85513255  0.80612270     0.29000
C2646       C  0.47982540  0.83606796  0.83972843    -0.21800
C2647       C  0.48767343  0.84845255  0.88059573    -0.09900
C2648       C  0.49251671  0.87970533  0.88727986     0.29000
F2649       F  0.99225282  0.88513927  0.92016873    -0.20400
H2650       H  0.99466241  0.91505585  0.85198217     0.17400
H2651       H  0.47454541  0.81165309  0.83350836     0.17400
F2652       F  0.47028022  0.84122545  0.76792188    -0.20400
C2653       C  0.62063417  0.52248466  0.64629059    -0.21800
C2654       C  0.63220240  0.54869145  0.67386872    -0.09900
C2655       C  0.66518246  0.57337433  0.67026106     0.29000
C2656       C  0.68608647  0.57077203  0.64184987    -0.21800
C2657       C  0.67466620  0.54378433  0.61559589    -0.09900
C2658       C  0.64134104  0.52017788  0.61742902     0.29000
F2659       F  0.62262677  0.99140486  0.58797616    -0.20400
H2660       H  0.59120946  0.99979064  0.64755728     0.17400
H2661       H  0.71109469  0.58995843  0.64022417     0.17400
F2662       F  0.67761490  0.59937045  0.69606471    -0.20400
C2663       C  0.63618654  0.55206328  0.86106531    -0.21800
C2664       C  0.62791357  0.53127917  0.82627402    -0.09900
C2665       C  0.64036950  0.51023361  0.82499200     0.29000
C2666       C  0.66084584  0.51075926  0.85661648    -0.21800
C2667       C  0.66911950  0.53188797  0.89060838    -0.09900
C2668       C  0.65616271  0.55217902  0.89277264     0.29000
F2669       F  0.66444067  0.57385063  0.92427436    -0.20400
H2670       H  0.62889986  0.56969974  0.86405329     0.17400
H2671       H  0.67066173  0.49495227  0.85417773     0.17400
F2672       F  0.63382120  0.49003143  0.79215308    -0.20400
C2673       C  0.64331650  0.70741881  0.62451647    -0.21800
C2674       C  0.66525465  0.69952672  0.60815714    -0.09900
C2675       C  0.65946926  0.66781694  0.61443752     0.29000
C2676       C  0.63449435  0.64587964  0.64083337    -0.21800
C2677       C  0.61453237  0.65495757  0.66089001    -0.09900
C2678       C  0.61773771  0.68511201  0.64982777     0.29000
F2679       F  0.59927866  0.69500795  0.66904233    -0.20400
H2680       H  0.64660841  0.73124672  0.61884986     0.17400
H2681       H  0.63328422  0.62337162  0.64955129     0.17400
F2682       F  0.67972063  0.65902625  0.59797148    -0.20400
C2683       C  0.63135286  0.66128137  0.85569656    -0.21800
C2684       C  0.64136258  0.67428932  0.81513425    -0.09900
C2685       C  0.67105672  0.70411357  0.81169126     0.29000
C2686       C  0.68935113  0.71979910  0.84762132    -0.21800
C2687       C  0.67885642  0.70654908  0.88782216    -0.09900
C2688       C  0.64959137  0.67673644  0.89118145     0.29000
F2689       F  0.63801283  0.66241379  0.92893046    -0.20400
H2690       H  0.60887097  0.63855456  0.85998217     0.17400
H2691       H  0.71145244  0.74294767  0.84397031     0.17400
F2692       F  0.68265370  0.71903467  0.77445783    -0.20400
C2693       C  0.99173776  0.68490575  0.69498960    -0.21800
C2694       C  0.00643476  0.66577394  0.69276630    -0.09900
C2695       C  0.51798520  0.66711128  0.65371106     0.29000
C2696       C  0.52070332  0.68778309  0.62004379    -0.21800
C2697       C  0.01263333  0.71020067  0.62679391    -0.09900
C2698       C  0.99511591  0.70693465  0.66316895     0.29000
F2699       F  0.97978875  0.72387540  0.66725098    -0.20400
H2700       H  0.97735960  0.68292277  0.72190523     0.17400
H2701       H  0.53260240  0.68726521  0.59174549     0.17400
F2702       F  0.53131296  0.64827360  0.65010742    -0.20400
C2703       C  0.97816369  0.66070774  0.85062475    -0.21800
C2704       C  0.49731922  0.65674924  0.84527049    -0.09900
C2705       C  0.52309874  0.67244226  0.87403549     0.29000
C2706       C  0.52278655  0.69325282  0.90396417    -0.21800
C2707       C  0.49792459  0.70017007  0.90481220    -0.09900
C2708       C  0.97779201  0.68233035  0.87893871     0.29000
F2709       F  0.95199960  0.68643944  0.87996171    -0.20400
H2710       H  0.95786032  0.64814914  0.82955526     0.17400
H2711       H  0.54327520  0.70580374  0.92476830     0.17400
F2712       F  0.55003989  0.67052396  0.87179730    -0.20400
loop_ 
_geom_bond_atom_site_label_1 
_geom_bond_atom_site_label_2 
_geom_bond_distance 
_geom_bond_site_symmetry_2 
_ccdc_geom_bond_type 
C1            C2   1.507       .  S
C1         C1363   1.488   1_455  S
C1         C1361   1.534       .  S
C1          C331   1.528       .  S
C2            H9   1.076       .  S
C2            C3   1.373       .  D
C3         C1360   1.608       .  S
C3           C20   1.546       .  S
C4            C8   1.600       .  S
C4         C1359   1.592       .  S
C4         C1362   1.596       .  S
C4           H10   1.109       .  S
C5         C1357   1.504       .  S
C5           H11   1.083       .  S
C5         C1362   1.360       .  D
C6         C1360   1.572       .  S
C6         C1361   1.358       .  D
C6         C1677   1.524       .  S
C7         C1357   1.501       .  S
C7           H12   1.079       .  S
C7            C8   1.373       .  D
C8           C63   1.551       .  S
C13          C14   1.519       .  S
C13          C19   1.527       .  S
C13          C17   1.500       .  S
C13         C311   1.549       .  S
C14          H21   1.088       .  S
C14          C15   1.381       .  D
C15          C16   1.582       .  S
C15          C32   1.546       .  S
C16          C20   1.558       .  S
C16          C18   1.587       .  S
C16          H22   1.110       .  S
C17          H23   1.081       .  S
C17          C18   1.370       .  D
C18         C304   1.480       .  S
C19          H24   1.083       .  S
C19          C20   1.386       .  D
C25          C26   1.488       .  S
C25          C31   1.512       .  S
C25          C29   1.533       .  S
C25         C291   1.526       .  S
C26         H711   1.085   1_545  S
C26          C27   1.370   1_545  D
C27          C28   1.610   1_565  S
C27         C722   1.542       .  S
C28          C32   1.600       .  S
C28          C30   1.563       .  S
C28          H34   1.109       .  S
C29          H35   1.087       .  S
C29          C30   1.358       .  D
C30         C281   1.520       .  S
C31          H36   1.082       .  S
C31          C32   1.381       .  D
H33         C704   1.085       .  S
C37          C43   1.515   1_655  S
C37          C41   1.498       .  S
C37        C1394   1.508       .  S
C37         C271   1.543       .  S
C38        C1393   1.519       .  S
C38          H45   1.087       .  S
C38          C39   1.381       .  D
C39        C1396   1.614       .  S
C39          C56   1.571       .  S
C40          C44   1.578   1_655  S
C40        C1395   1.591       .  S
C40        C1398   1.595       .  S
C40          H46   1.110       .  S
C41          H47   1.085       .  S
C41        C1398   1.370       .  D
C42        C1396   1.586       .  S
C42        C1397   1.368       .  D
C42         C261   1.499       .  S
C43          H48   1.084       .  S
C43          C44   1.383       .  D
C44         C705   1.551       .  S
C49          C50   1.509       .  S
C49          C55   1.491       .  S
C49          C53   1.533       .  S
C49         C251   1.537       .  S
C50          H57   1.081       .  S
C50          C51   1.383       .  D
C51          C52   1.610       .  S
C51         C746   1.551       .  S
C52          C56   1.613       .  S
C52          C54   1.560       .  S
C52          H58   1.109       .  S
C53          H59   1.087       .  S
C53          C54   1.354       .  D
C54         C241   1.514       .  S
C55          H60   1.087       .  S
C55          C56   1.382       .  D
C61          C62   1.542       .  S
C61          C67   1.512   1_545  S
C61          C65   1.512       .  S
C61         C234   1.557       .  S
C62          H69   1.077       .  S
C62          C63   1.387       .  D
C63          C64   1.561       .  S
C64          C68   1.597       .  S
C64          C66   1.586       .  S
C64          H70   1.110       .  S
C65          H71   1.084       .  S
C65          C66   1.361       .  D
C66         C221   1.501       .  S
C67         H750   1.087       .  S
C67          C68   1.385   1_565  D
C68         C729   1.556   1_545  S
H72         C745   1.086       .  S
O73          C81   1.270       .  A
O73         Co93   1.997       .  S
O74          C82   1.317       .  A
O74        Co772   2.133       .  S
O75          C83   1.265       .  A
O75         Co95   1.888       .  S
O76          C84   1.254       .  A
O76        Co435   1.954       .  S
O77          C83   1.313       .  A
O77        Co772   2.125       .  S
O78          C84   1.264       .  A
O78         Co93   1.995       .  S
O79          C82   1.267       .  A
O79         Co96   1.888       .  S
O80         C420   1.263   1_554  A
O80         Co95   1.964       .  S
C81         O419   1.261       .  A
C81         C191   1.460       .  S
C82         C224   1.497       .  S
C83         C284   1.507       .  S
C84         C211   1.453       .  S
O85          C98   1.272       .  A
O85         Co93   1.999       .  S
O86          C99   1.254       .  A
O86         Co94   1.985       .  S
O87         C100   1.264       .  A
O87        Co434   1.996       .  S
O88         C101   1.242   1_556  A
O88        Co774   1.940       .  S
O89         C101   1.252       .  A
O89         Co94   1.983       .  S
O90         C100   1.268       .  A
O90         Co93   1.992       .  S
O91          C98   1.274       .  A
O91        Co435   2.022       .  S
O92          C99   1.245   1_556  A
O92        Co773   1.946   1_556  S
Co93        O436   2.076       .  S
Co94        O752   2.128       .  S
Co94        O755   2.141       .  S
Co94        O775   2.270   1_554  S
Co95        O426   1.998   1_554  S
Co95        O770   1.942   1_544  S
Co95         O97   1.901   1_554  S
Co96        O415   1.961       .  S
Co96        O766   1.928   1_544  S
Co96        O430   2.012   1_554  S
Co96         O97   1.871   1_554  S
O97        Co432   2.079       .  S
O97        Co772   2.271   1_556  S
C98         C231   1.502       .  S
C99         C204   1.466       .  S
C100        C294   1.469       .  S
C101        C181   1.450       .  S
O102        C110   1.266   1_655  A
O102       Co122   1.978   1_655  S
O103        C111   1.254       .  A
O103       Co123   1.984       .  S
O104        C112   1.241   1_556  A
O104       Co124   1.928   1_556  S
O105        C113   1.271   1_455  A
O105       Co464   2.017   1_455  S
O106        C112   1.253       .  A
O106       Co123   1.991       .  S
O107        C113   1.264       .  A
O107       Co122   1.985   1_655  S
O108        C111   1.243   1_556  A
O108      Co1481   1.943   1_556  S
O109       C1466   1.268       .  A
O109       Co463   2.007       .  S
C110       O1465   1.266       .  A
C110        C334   1.466       .  S
C111        C174   1.461       .  S
C112        C214   1.454       .  S
C113        C274   1.495       .  S
O114        C127   1.266       .  A
O114       Co122   2.009       .  S
O115        C128   1.320       .  A
O115       Co123   2.142       .  S
O116        C468   1.260   1_554  A
O116      Co1480   1.969       .  S
O117       C1486   1.267       .  A
O117       Co125   1.871       .  S
O118        C130   1.320       .  A
O118       Co123   2.137       .  S
O119        C129   1.266       .  A
O119       Co122   1.985       .  S
O120        C466   1.253   1_554  A
O120       Co125   1.965   1_455  S
O121        C128   1.264       .  A
O121       Co124   1.874       .  S
Co122      O1821   2.079   1_455  S
Co123       O126   2.270   1_554  S
Co124       O448   2.005   1_554  S
Co124      O1472   1.967       .  S
Co124       O126   1.876   1_554  S
Co125       O444   2.028   1_654  S
Co125      O1464   1.951   1_554  S
Co125      O1482   1.871   1_554  S
O126      Co1817   2.061       .  S
O126      Co1481   1.864   1_556  S
C127        O459   1.254       .  A
C127        C201   1.458       .  S
C128        C324   1.496       .  S
C129        O455   1.261       .  A
C129        C161   1.461       .  S
C130       O1473   1.266       .  A
C130        C264   1.490       .  S
O131        C139   1.254       .  A
O131       Co151   1.988       .  S
O132        C140   1.282       .  A
O132       Co152   2.034       .  S
O133        C141   1.267       .  A
O133       Co153   1.992   1_554  S
O134        C481   1.241   1_554  A
O134       Co154   1.937       .  S
O135        C141   1.281       .  A
O135       Co152   2.023       .  S
O136        C142   1.261       .  A
O136       Co151   1.983       .  S
O137        C140   1.267       .  A
O137       Co154   2.000       .  S
O138        C478   1.241   1_554  A
O138       Co153   1.950   1_554  S
C139        O477   1.242       .  A
C139        C164   1.471       .  S
C140        C244   1.507       .  S
C141        C301   1.482       .  S
C142        O473   1.255       .  A
C142        C184   1.462       .  S
O143        C156   1.286       .  A
O143       Co151   2.060       .  S
O144        C157   1.268       .  A
O144       Co152   1.996       .  S
O145        C158   1.269       .  A
O145       Co492   1.886       .  S
O146        C159   1.257   1_556  A
O146       Co154   1.962   1_556  S
O147        C159   1.269       .  A
O147       Co152   1.999       .  S
O148        C158   1.303       .  A
O148       Co151   2.104       .  S
O149        C156   1.249       .  A
O149       Co493   1.921       .  S
O150        C157   1.262   1_556  A
O150       Co153   1.968       .  S
Co151       O494   2.218       .  S
Co152       O155   2.074       .  S
Co153       O484   1.895       .  S
Co153       O155   1.894   1_556  S
Co154       O488   1.884   1_554  S
Co154       O155   1.882       .  S
O155       Co490   2.268   1_554  S
C156        C254   1.482       .  S
C157        C194   1.467       .  S
C158        C314   1.495       .  S
C159        C171   1.459       .  S
C160        C161   1.403       .  A
C160        C165   1.390       .  A
C160        H167   1.084       .  S
C161        C501   1.403       .  A
C162        C163   1.395       .  A
C162        C500   1.404       .  A
C162        F169   1.358       .  S
C163        C503   1.406   1_554  A
C163        H168   1.083       .  S
C164        C165   1.405       .  A
C164        C502   1.408       .  A
C165        F166   1.357       .  S
C170        C171   1.400       .  A
C170        C175   1.386       .  A
C170        H177   1.084       .  S
C171        C511   1.406   1_554  A
C172        C173   1.389       .  A
C172        C510   1.407       .  A
C172        F179   1.358       .  S
C173        C513   1.402       .  A
C173        H178   1.084       .  S
C174        C175   1.406       .  A
C174        C512   1.403   1_554  A
C175        F176   1.358       .  S
C180        C181   1.401       .  A
C180        C524   1.386       .  A
C180        H187   1.084       .  S
C181        C182   1.401   1_554  A
C182        C522   1.387       .  A
C182        F189   1.358       .  S
C183        C184   1.406       .  A
C183        C521   1.389       .  A
C183        H188   1.083       .  S
C184        C185   1.404       .  A
C185        C519   1.387       .  A
C185        F186   1.358       .  S
C190        C191   1.406       .  A
C190        C195   1.390       .  A
C190        H197   1.083       .  S
C191        C531   1.403       .  A
C192        C193   1.391       .  A
C192        C530   1.403   1_554  A
C192        F199   1.358       .  S
C193        C194   1.406       .  A
C193        H198   1.083       .  S
C194        C534   1.404   1_554  A
C195        C533   1.402       .  A
C195        F196   1.358       .  S
C200        C205   1.390       .  A
C200        C540   1.399   1_554  A
C200        H207   1.084       .  S
C201        C202   1.401       .  A
C201        C539   1.402       .  A
C202        C203   1.391       .  A
C202        F209   1.358       .  S
C203        C543   1.406       .  A
C203        H208   1.083       .  S
C204        C205   1.408       .  A
C204        C542   1.405   1_554  A
C205        F206   1.358       .  S
C210        C215   1.389       .  A
C210        C550   1.404   1_554  A
C210        H217   1.083       .  S
C211        C212   1.403       .  A
C211        C549   1.402       .  A
C212        C552   1.385       .  A
C212        F219   1.358       .  S
C213        C214   1.401   1_556  A
C213        C551   1.384       .  A
C213        H218   1.084       .  S
C214        C215   1.402       .  A
C215        F216   1.358       .  S
C220        C221   1.418       .  A
C220        C225   1.409       .  A
C220        H227   1.084       .  S
C221        C222   1.403       .  A
C222        C223   1.408       .  A
C222        F229   1.357   1_545  S
C223        C224   1.414       .  A
C223        H228   1.083       .  S
C224        C225   1.402       .  A
C225        F226   1.357       .  S
C230        C231   1.408       .  A
C230        C235   1.407       .  A
C230        H237   1.083       .  S
C231        C232   1.408       .  A
C232        C233   1.405       .  A
C232        F239   1.357       .  S
C233        C234   1.415       .  A
C233        H238   1.080       .  S
C234        C235   1.417       .  A
C235        F236   1.357       .  S
C240        C241   1.419       .  A
C240        C245   1.408       .  A
C240        H247   1.083       .  S
C241        C242   1.404       .  A
C242        C243   1.412       .  A
C242        F249   1.356       .  S
C243        C244   1.418       .  A
C243        H248   1.083       .  S
C244        C245   1.404       .  A
C245        F246   1.357       .  S
C250        C251   1.403       .  A
C250        C255   1.397       .  A
C250        H257   1.078       .  S
C251        C252   1.423       .  A
C252        C253   1.403       .  A
C252        F259   1.357       .  S
C253        C254   1.396       .  A
C253        H258   1.083       .  S
C254        C255   1.415       .  A
C255        F256   1.359       .  S
C260        C265   1.409       .  A
C260       C1617   1.413   1_455  A
C260        H267   1.084       .  S
C261        C262   1.402       .  A
C261       C1616   1.418       .  A
C262        C263   1.403       .  A
C262        F269   1.357       .  S
C263        C264   1.413       .  A
C263        H268   1.084       .  S
C264       C1621   1.400       .  A
C265       C1620   1.404       .  A
C265        F266   1.357       .  S
C270        C271   1.411       .  A
C270        C275   1.410       .  A
C270       H1633   1.079       .  S
C271        C272   1.416       .  A
C272        C273   1.397       .  A
C272        F279   1.358       .  S
C273        C274   1.402       .  A
C273        H278   1.083       .  S
C274        C275   1.413       .  A
C275       F1632   1.357       .  S
F276       C1631   1.358       .  S
H277       C1626   1.075       .  S
C280        C281   1.417       .  A
C280        C285   1.407       .  A
C280        H965   1.083       .  S
C281        C282   1.407       .  A
C282        C283   1.416       .  A
C282        F289   1.355       .  S
C283        C284   1.417       .  A
C283        H288   1.083       .  S
C284        C285   1.405       .  A
C285        F964   1.357       .  S
F286        C963   1.357       .  S
H287        C958   1.082       .  S
C290        C291   1.408       .  A
C290        C295   1.399       .  A
C290        H297   1.078       .  S
C291        C292   1.418       .  A
C292        C293   1.394       .  A
C292        F299   1.358   1_545  S
C293        C294   1.395       .  A
C293        H298   1.084   1_545  S
C294        C295   1.406       .  A
C295        F296   1.358       .  S
C300        C301   1.401       .  A
C300        C305   1.404       .  A
C300        H307   1.083       .  S
C301        C302   1.409       .  A
C302        C303   1.402       .  A
C302        F309   1.358       .  S
C303        C304   1.402       .  A
C303        H308   1.080       .  S
C304        C305   1.413       .  A
C305        F306   1.358       .  S
C310        C311   1.412       .  A
C310        C315   1.397       .  A
C310        H317   1.083       .  S
C311        C312   1.419       .  A
C312        C313   1.410       .  A
C312        F319   1.353       .  S
C313        C314   1.408       .  A
C313        H318   1.083       .  S
C314        C315   1.406       .  A
C315        F316   1.358       .  S
C320        C321   1.404       .  A
C320        C325   1.408       .  A
C320        H327   1.084       .  S
C321       C1362   1.497       .  S
C321       C1678   1.420       .  A
C322        C323   1.414       .  A
C322       C1677   1.427       .  A
C322        F329   1.357       .  S
C323       C1680   1.401       .  A
C323        H328   1.083       .  S
C324        C325   1.414       .  A
C324       C1679   1.402       .  A
C325        F326   1.358       .  S
C330        C335   1.391       .  A
C330       C1687   1.405       .  A
C330        H337   1.077       .  S
C331        C332   1.415       .  A
C331       C1686   1.413   1_455  A
C332        C333   1.398       .  A
C332        F339   1.353       .  S
C333        C334   1.403       .  A
C333        H338   1.084       .  S
C334       C1691   1.397   1_455  A
C335       C1690   1.410       .  A
C335        F336   1.358       .  S
C340        C341   1.501       .  S
C340       C1702   1.495   1_455  S
C340       C1700   1.526       .  S
C340        C670   1.526       .  S
C341        H348   1.082       .  S
C341        C342   1.373       .  D
C342       C1699   1.613       .  S
C342        C359   1.552       .  S
C343       C1698   1.591       .  S
C343        C347   1.604       .  S
C343       C1701   1.596       .  S
C343        H349   1.109       .  S
C344       C1696   1.509       .  S
C344        H350   1.082       .  S
C344       C1701   1.358       .  D
C345       C1699   1.574       .  S
C345       C1700   1.360       .  D
C345       C2016   1.525       .  S
C346       C1696   1.495       .  S
C346        H351   1.085       .  S
C346        C347   1.373       .  D
C347        C402   1.553       .  S
C352        C353   1.516       .  S
C352        C358   1.524       .  S
C352        C356   1.502       .  S
C352        C650   1.552       .  S
C353        H360   1.087       .  S
C353        C354   1.380       .  D
C354        C355   1.586       .  S
C354        C371   1.554       .  S
C355        C359   1.565       .  S
C355        C357   1.599       .  S
C355        H361   1.110       .  S
C356        H362   1.082       .  S
C356        C357   1.370       .  D
C357        C643   1.492       .  S
C358        H363   1.083       .  S
C358        C359   1.386       .  D
C364        C365   1.486       .  S
C364        C370   1.520       .  S
C364        C368   1.534       .  S
C364        C630   1.533       .  S
C365       H1050   1.083   1_545  S
C365        C366   1.370   1_545  D
C366        C367   1.619   1_565  S
C366       C1061   1.552       .  S
C367        C371   1.598       .  S
C367        C369   1.565       .  S
C367        H373   1.109       .  S
C368        H374   1.087       .  S
C368        C369   1.357       .  D
C369        C620   1.520       .  S
C370        H375   1.081       .  S
C370        C371   1.382       .  D
H372       C1043   1.086       .  S
C376       C1733   1.507       .  S
C376        C382   1.517   1_655  S
C376        C380   1.502       .  S
C376        C610   1.548       .  S
C377       C1732   1.509       .  S
C377        H384   1.086       .  S
C377        C378   1.379       .  D
C378       C1735   1.623       .  S
C378        C395   1.581       .  S
C379       C1734   1.589       .  S
C379        C383   1.575   1_655  S
C379       C1737   1.595       .  S
C379        H385   1.110       .  S
C380        H386   1.082       .  S
C380       C1737   1.372       .  D
C381       C1735   1.588       .  S
C381       C1736   1.366       .  D
C381        C600   1.501       .  S
C382        H387   1.085       .  S
C382        C383   1.382       .  D
C383       C1044   1.548       .  S
C388        C389   1.514       .  S
C388        C394   1.488       .  S
C388        C392   1.527       .  S
C388        C590   1.538       .  S
C389        H396   1.081       .  S
C389        C390   1.379       .  D
C390        C391   1.611       .  S
C390       C1085   1.558       .  S
C391        C395   1.617       .  S
C391        C393   1.561       .  S
C391        H397   1.109       .  S
C392        H398   1.087       .  S
C392        C393   1.355       .  D
C393        C580   1.502       .  S
C394        H399   1.085       .  S
C394        C395   1.384       .  D
C400        C401   1.553       .  S
C400        C406   1.519   1_545  S
C400        C404   1.509       .  S
C400        C573   1.562       .  S
C401        H408   1.077       .  S
C401        C402   1.380       .  D
C402        C403   1.558       .  S
C403        C407   1.609       .  S
C403        C405   1.592       .  S
C403        H409   1.109       .  S
C404        H410   1.086       .  S
C404        C405   1.365       .  D
C405        C560   1.514       .  S
C406       H1089   1.087       .  S
C406        C407   1.386   1_565  D
C407       C1068   1.565   1_545  S
H411       C1084   1.086       .  S
O412        C420   1.269       .  A
O412       Co432   1.997       .  S
O413        C421   1.318       .  A
O413      Co1111   2.136       .  S
O414        C422   1.263       .  A
O414       Co434   1.886       .  S
O415        C423   1.256   1_554  A
O416        C422   1.315       .  A
O416      Co1111   2.142       .  S
O417        C423   1.266       .  A
O417       Co432   1.997       .  S
O418        C421   1.269       .  A
O418       Co435   1.887       .  S
O419       Co434   1.954       .  S
C420        C530   1.465       .  S
C421        C563   1.503       .  S
C422        C623   1.508       .  S
C423        C550   1.458       .  S
O424        C437   1.272       .  A
O424       Co432   2.015       .  S
O425        C438   1.256       .  A
O425       Co433   1.996       .  S
O426        C439   1.268       .  A
O427        C440   1.253       .  A
O427      Co1113   1.947       .  S
O428        C440   1.263       .  A
O428       Co433   1.989       .  S
O429        C439   1.271       .  A
O429       Co432   1.990       .  S
O430        C437   1.270       .  A
O431        C438   1.243       .  A
O431      Co1112   1.941       .  S
Co433      O1091   2.086       .  S
Co433      O1094   2.141       .  S
Co433      O1114   2.227       .  S
Co434      O1109   1.925   1_545  S
Co434       O436   1.894       .  S
Co435      O1105   1.924   1_545  S
Co435       O436   1.869       .  S
O436      Co1111   2.272       .  S
C437        C570   1.504       .  S
C438        C543   1.469       .  S
C439        C633   1.471       .  S
C440        C520   1.455       .  S
O441        C449   1.265   1_655  A
O441       Co461   1.986   1_655  S
O442        C450   1.254       .  A
O442       Co462   1.985       .  S
O443        C451   1.239       .  A
O443       Co463   1.927       .  S
O444        C452   1.273   1_455  A
O445        C451   1.253       .  A
O445       Co462   1.988       .  S
O446        C452   1.264       .  A
O446       Co461   1.982   1_655  S
O447        C450   1.242       .  A
O447      Co1820   1.941       .  S
O448       C1805   1.267       .  A
C449       O1804   1.263       .  A
C449        C673   1.464       .  S
C450        C513   1.461       .  S
C451        C553   1.454       .  S
C452        C613   1.499       .  S
O453        C466   1.265       .  A
O453       Co461   2.009       .  S
O454        C467   1.319       .  A
O454       Co462   2.139       .  S
O455      Co1819   1.974       .  S
O456       C1825   1.266       .  A
O456       Co464   1.875       .  S
O457        C469   1.319       .  A
O457       Co462   2.134       .  S
O458        C468   1.268       .  A
O458       Co461   1.985       .  S
O459       Co464   1.970   1_455  S
O460        C467   1.267       .  A
O460       Co463   1.888       .  S
Co461      O1482   2.073   1_455  S
Co462       O465   2.269       .  S
Co463      O1811   1.962       .  S
Co463       O465   1.881       .  S
Co464      O1803   1.960       .  S
Co464      O1821   1.877       .  S
O465      Co1478   2.060       .  S
O465      Co1820   1.866       .  S
C466        C540   1.454       .  S
C467        C663   1.503       .  S
C468        C500   1.458   1_556  S
C469       O1812   1.267       .  A
C469        C603   1.490       .  S
O470        C478   1.251       .  A
O470       Co490   1.978       .  S
O471        C479   1.291       .  A
O471       Co491   2.064       .  S
O472        C480   1.272       .  A
O472       Co492   2.016       .  S
O473       Co493   1.950       .  S
O474        C480   1.283       .  A
O474       Co491   2.027       .  S
O475        C481   1.252       .  A
O475       Co490   1.980       .  S
O476        C479   1.256       .  A
O476       Co493   1.938       .  S
O477       Co492   1.944       .  S
C478        C503   1.466       .  S
C479        C583   1.492       .  S
C480        C640   1.498       .  S
C481        C523   1.456       .  S
O482        C495   1.303       .  A
O482       Co490   2.091       .  S
O483        C496   1.266       .  A
O483       Co491   1.987       .  S
O484        C497   1.269       .  A
O485        C498   1.249       .  A
O485       Co493   1.941       .  S
O486        C498   1.269       .  A
O486       Co491   2.008       .  S
O487        C497   1.303       .  A
O487       Co490   2.097       .  S
O488        C495   1.265       .  A
O489        C496   1.261       .  A
O489       Co492   1.963       .  S
Co491       O494   2.113       .  S
Co492       O494   1.910       .  S
Co493       O494   1.933       .  S
C495        C593   1.477       .  S
C496        C533   1.459       .  S
C497        C653   1.499       .  S
C498        C510   1.460       .  S
C499        C500   1.401   1_556  A
C499        C504   1.386       .  A
C499        H506   1.084       .  S
C501        C502   1.395       .  A
C501        F508   1.358       .  S
C502        H507   1.083       .  S
C503        C504   1.406       .  A
C504        F505   1.358       .  S
C509        C510   1.400       .  A
C509        C514   1.387       .  A
C509        H516   1.084       .  S
C511        C512   1.390       .  A
C511        F518   1.358       .  S
C512        H517   1.083       .  S
C513        C514   1.406       .  A
C514        F515   1.358       .  S
C519        C520   1.402       .  A
C519        H526   1.083       .  S
C520        C521   1.401       .  A
C521        F528   1.358       .  S
C522        C523   1.403       .  A
C522        H527   1.083       .  S
C523        C524   1.405   1_556  A
C524        F525   1.358       .  S
C529        C530   1.405       .  A
C529        C534   1.389       .  A
C529        H536   1.083       .  S
C531        C532   1.384       .  A
C531        F538   1.358       .  S
C532        C533   1.404       .  A
C532        H537   1.083       .  S
C534        F535   1.358       .  S
C539        C544   1.393       .  A
C539        H546   1.084       .  S
C540        C541   1.402       .  A
C541        C542   1.391       .  A
C541        F548   1.358       .  S
C542        H547   1.083       .  S
C543        C544   1.406       .  A
C544        F545   1.357       .  S
C549        C554   1.386       .  A
C549        H556   1.084       .  S
C550        C551   1.404       .  A
C551        F558   1.358       .  S
C552        C553   1.403       .  A
C552        H557   1.084       .  S
C553        C554   1.403       .  A
C554        F555   1.358       .  S
C559        C560   1.421       .  A
C559        C564   1.409       .  A
C559        H566   1.083       .  S
C560        C561   1.404       .  A
C561        C562   1.410       .  A
C561        F568   1.356       .  S
C562        C563   1.416       .  A
C562        H567   1.083       .  S
C563        C564   1.402       .  A
C564        F565   1.357       .  S
C569        C570   1.408       .  A
C569        C574   1.416       .  A
C569        H576   1.083   1_545  S
C570        C571   1.408       .  A
C571        C572   1.399       .  A
C571        F578   1.358       .  S
C572        C573   1.415       .  A
C572        H577   1.073       .  S
C573        C574   1.420       .  A
C574        F575   1.357   1_545  S
C579        C580   1.418       .  A
C579        C584   1.407       .  A
C579        H586   1.083       .  S
C580        C581   1.399       .  A
C581        C582   1.402       .  A
C581        F588   1.355       .  S
C582        C583   1.416       .  A
C582        H587   1.083       .  S
C583        C584   1.400       .  A
C584        F585   1.357       .  S
C589        C590   1.406       .  A
C589        C594   1.398       .  A
C589        H596   1.077       .  S
C590        C591   1.422       .  A
C591        C592   1.400       .  A
C591        F598   1.358       .  S
C592        C593   1.397       .  A
C592        H597   1.083       .  S
C593        C594   1.409       .  A
C594        F595   1.358       .  S
C599       C1956   1.414   1_455  A
C599        C604   1.408       .  A
C599        H606   1.084       .  S
C600       C1955   1.418       .  A
C600        C601   1.402       .  A
C601        C602   1.405       .  A
C601        F608   1.355       .  S
C602        C603   1.413       .  A
C602        H607   1.084       .  S
C603       C1960   1.400       .  A
C604       C1959   1.402       .  A
C604        F605   1.357       .  S
C609        C610   1.415   1_455  A
C609        C614   1.398   1_455  A
C609       H1972   1.084       .  S
C610        C611   1.414       .  A
C611        C612   1.410       .  A
C611        F618   1.353       .  S
C612        C613   1.412       .  A
C612        H617   1.083       .  S
C613        C614   1.405       .  A
C614       F1971   1.357   1_655  S
F615       C1970   1.358       .  S
H616       C1965   1.074       .  S
C619        C620   1.403       .  A
C619        C624   1.413       .  A
C619       H1304   1.083       .  S
C620        C621   1.424       .  A
C621        C622   1.412       .  A
C621        F628   1.357       .  S
C622        C623   1.400       .  A
C622        H627   1.083       .  S
C623        C624   1.420       .  A
C624       F1303   1.358       .  S
F625       C1302   1.358       .  S
H626       C1297   1.083       .  S
C629        C630   1.416       .  A
C629        C634   1.394       .  A
C629        H636   1.084   1_545  S
C630        C631   1.414       .  A
C631        C632   1.399       .  A
C631        F638   1.352       .  S
C632        C633   1.404       .  A
C632        H637   1.084       .  S
C633        C634   1.397       .  A
C634        F635   1.358   1_545  S
C639        C640   1.402       .  A
C639        C644   1.408       .  A
C639        H646   1.083       .  S
C640        C641   1.414       .  A
C641        C642   1.409       .  A
C641        F648   1.358       .  S
C642        C643   1.405       .  A
C642        H647   1.084       .  S
C643        C644   1.415       .  A
C644        F645   1.358       .  S
C649        C650   1.412       .  A
C649        C654   1.397       .  A
C649        H656   1.083       .  S
C650        C651   1.418       .  A
C651        C652   1.413       .  A
C651        F658   1.353       .  S
C652        C653   1.409       .  A
C652        H657   1.083       .  S
C653        C654   1.408       .  A
C654        F655   1.358       .  S
C659        C660   1.404       .  A
C659        C664   1.413       .  A
C659        H666   1.083       .  S
C660       C1701   1.510       .  S
C660       C2017   1.423       .  A
C661       C2016   1.407       .  A
C661        C662   1.416       .  A
C661        F668   1.356       .  S
C662       C2019   1.420       .  A
C662        H667   1.083       .  S
C663       C2018   1.399       .  A
C663        C664   1.418       .  A
C664        F665   1.358       .  S
C669       C2026   1.407       .  A
C669        C674   1.389       .  A
C669        H676   1.077       .  S
C670       C2025   1.414   1_455  A
C670        C671   1.416       .  A
C671        C672   1.397       .  A
C671        F678   1.355       .  S
C672        C673   1.400       .  A
C672        H677   1.084       .  S
C673       C2030   1.397   1_455  A
C674       C2029   1.407       .  A
C674        F675   1.358       .  S
C679        C680   1.502       .  S
C679       C2041   1.491   1_455  S
C679       C2039   1.532       .  S
C679       C1009   1.521       .  S
C680        H687   1.081       .  S
C680        C681   1.371       .  D
C681       C2038   1.609       .  S
C681        C698   1.547       .  S
C682       C2037   1.621       .  S
C682        C686   1.618       .  S
C682       C2040   1.574       .  S
C682        H688   1.109       .  S
C683       C2035   1.529       .  S
C683        H689   1.086       .  S
C683       C2040   1.359       .  D
C684       C2038   1.569       .  S
C684       C2039   1.359       .  D
C684       C2355   1.518       .  S
C685       C2035   1.489       .  S
C685        H690   1.083       .  S
C685        C686   1.370       .  D
C686        C741   1.556       .  S
C691        C692   1.522       .  S
C691        C697   1.525       .  S
C691        C695   1.501       .  S
C691        C989   1.554       .  S
C692        H699   1.087       .  S
C692        C693   1.385       .  D
C693        C694   1.583       .  S
C693        C710   1.552       .  S
C694        C698   1.559       .  S
C694        C696   1.593       .  S
C694        H700   1.110       .  S
C695        H701   1.082       .  S
C695        C696   1.368       .  D
C696        C982   1.489       .  S
C697        H702   1.083       .  S
C697        C698   1.386       .  D
C703        C704   1.489       .  S
C703        C709   1.516       .  S
C703        C707   1.537       .  S
C703        C969   1.536       .  S
C704        C705   1.372       .  D
C705        C706   1.614       .  S
C706        C710   1.604       .  S
C706        C708   1.564       .  S
C706        H712   1.109       .  S
C707        H713   1.086       .  S
C707        C708   1.359       .  D
C708        C959   1.526       .  S
C709        H714   1.079       .  S
C709        C710   1.380       .  D
C715       C2072   1.512       .  S
C715        C721   1.519   1_655  S
C715        C719   1.503       .  S
C715        C949   1.555       .  S
C716       C2071   1.515       .  S
C716        H723   1.087       .  S
C716        C717   1.381       .  D
C717       C2074   1.605       .  S
C717        C734   1.564       .  S
C718       C2073   1.582       .  S
C718        C722   1.567   1_655  S
C718       C2076   1.585       .  S
C718        H724   1.110       .  S
C719        H725   1.082       .  S
C719       C2076   1.371       .  D
C720       C2074   1.583       .  S
C720       C2075   1.366       .  D
C720        C939   1.493       .  S
C721        H726   1.084       .  S
C721        C722   1.383       .  D
C727        C728   1.519       .  S
C727        C733   1.492       .  S
C727        C731   1.532       .  S
C727        C929   1.535       .  S
C728        H735   1.083       .  S
C728        C729   1.386       .  D
C729        C730   1.600       .  S
C730        C734   1.611       .  S
C730        C732   1.550       .  S
C730        H736   1.109       .  S
C731        H737   1.087       .  S
C731        C732   1.352       .  D
C732        C919   1.496       .  S
C733        H738   1.087       .  S
C733        C734   1.380       .  D
C739        C740   1.518       .  S
C739        C745   1.514       .  S
C739        C743   1.494       .  S
C739        C912   1.542       .  S
C740        H747   1.082       .  S
C740        C741   1.387       .  D
C741        C742   1.574       .  S
C742        C746   1.586       .  S
C742        C744   1.599       .  S
C742        H748   1.109       .  S
C743        H749   1.083       .  S
C743        C744   1.364       .  D
C744        C899   1.487       .  S
C745        C746   1.381       .  D
O751        C759   1.267       .  A
O751       Co771   1.987       .  S
O752        C760   1.318       .  A
O753        C761   1.263       .  A
O753       Co773   1.885       .  S
O754        C762   1.247       .  A
O754      Co1113   1.947       .  S
O755        C761   1.317       .  A
O756        C762   1.265       .  A
O756       Co771   2.014       .  S
O757        C760   1.269       .  A
O757       Co774   1.884   1_554  S
O758       C1098   1.260   1_554  A
O758       Co773   1.966       .  S
C759       O1097   1.262       .  A
C759        C869   1.461       .  S
C760        C902   1.488       .  S
C761        C962   1.515       .  S
C762        C889   1.457       .  S
O763        C776   1.277       .  A
O763       Co771   2.022       .  S
O764        C777   1.255       .  A
O764       Co772   1.992   1_565  S
O765        C778   1.265       .  A
O765      Co1112   2.003       .  S
O766        C779   1.237   1_556  A
O767        C779   1.250       .  A
O767       Co772   1.979   1_565  S
O768        C778   1.268       .  A
O768       Co771   1.996       .  S
O769        C776   1.261       .  A
O769      Co1113   1.957       .  S
O770        C777   1.244   1_556  A
Co771      O1114   2.116       .  S
Co773      O1104   1.999   1_554  S
Co773       O775   1.905   1_554  S
Co774      O1093   1.966   1_556  S
Co774      O1108   2.032       .  S
Co774       O775   1.871       .  S
O775      Co1110   2.081       .  S
C776        C909   1.483       .  S
C777        C882   1.468       .  S
C778        C972   1.476       .  S
C779        C859   1.440       .  S
O780        C788   1.265   1_655  A
O780       Co800   1.978   1_655  S
O781        C789   1.251       .  A
O781       Co801   1.976       .  S
O782        C790   1.242       .  A
O782       Co802   1.936       .  S
O783        C791   1.273   1_455  A
O783      Co1142   2.027   1_455  S
O784        C790   1.256       .  A
O784       Co801   2.001       .  S
O785        C791   1.266       .  A
O785       Co800   1.992   1_655  S
O786        C789   1.242   1_556  A
O786      Co2159   1.945   1_556  S
O787       C2144   1.264       .  A
O787      Co1141   1.983       .  S
C788       O2143   1.263       .  A
C788       C1012   1.457       .  S
C789        C852   1.459       .  S
C790        C892   1.463       .  S
C791        C952   1.504       .  S
O792        C805   1.264       .  A
O792       Co800   2.003       .  S
O793        C806   1.316       .  A
O793       Co801   2.141       .  S
O794       C1146   1.264   1_554  A
O794      Co2158   1.977       .  S
O795       C2164   1.266       .  A
O795       Co803   1.867       .  S
O796        C808   1.318       .  A
O796       Co801   2.130       .  S
O797        C807   1.268       .  A
O797       Co800   1.987       .  S
O798       C1144   1.253   1_554  A
O798       Co803   1.968   1_455  S
O799        C806   1.264       .  A
O799       Co802   1.889       .  S
Co800      O2499   2.077   1_455  S
Co801       O804   2.268   1_554  S
Co802      O1126   1.993   1_554  S
Co802      O2150   1.965       .  S
Co802       O804   1.904   1_554  S
Co803      O1122   2.022   1_654  S
Co803      O2142   1.955   1_554  S
Co803      O2160   1.868   1_554  S
O804      Co2495   2.077       .  S
O804      Co2159   1.869   1_556  S
C805       O1137   1.252       .  A
C805        C879   1.455       .  S
C806       C1002   1.514       .  S
C807       O1133   1.260       .  A
C807        C839   1.455       .  S
C808       O2151   1.268       .  A
C808        C942   1.487       .  S
O809        C817   1.251       .  A
O809       Co829   1.977       .  S
O810        C818   1.291       .  A
O810       Co830   2.062       .  S
O811        C819   1.272       .  A
O811       Co831   2.011   1_554  S
O812       C1159   1.252   1_554  A
O812       Co832   1.939       .  S
O813        C819   1.282       .  A
O813       Co830   2.026       .  S
O814        C820   1.263       .  A
O814       Co829   1.987       .  S
O815        C818   1.256       .  A
O815       Co832   1.930       .  S
O816       C1156   1.242       .  A
O816       Co831   1.946       .  S
C817       O1155   1.241       .  A
C817        C842   1.465       .  S
C818        C922   1.490       .  S
C819        C979   1.496       .  S
C820       O1151   1.254       .  A
C820        C862   1.460       .  S
O821        C834   1.283       .  A
O821       Co829   2.050       .  S
O822        C835   1.266       .  A
O822       Co830   1.992       .  S
O823        C836   1.268       .  A
O823      Co1170   1.888       .  S
O824        C837   1.251   1_556  A
O824       Co832   1.939   1_556  S
O825        C837   1.268       .  A
O825       Co830   2.003       .  S
O826        C836   1.303       .  A
O826       Co829   2.104       .  S
O827        C834   1.251       .  A
O827      Co1171   1.933       .  S
O828        C835   1.263   1_556  A
O828       Co831   1.961       .  S
Co829      O1172   2.215       .  S
Co830       O833   2.118       .  S
Co831      O1162   1.884       .  S
Co831       O833   1.906   1_556  S
Co832      O1166   1.929   1_554  S
Co832       O833   1.931       .  S
O833      Co1168   2.217   1_554  S
C834        C932   1.480       .  S
C835        C872   1.461       .  S
C836        C992   1.497       .  S
C837        C849   1.458       .  S
C838        C839   1.402       .  A
C838        C843   1.388       .  A
C838        H845   1.084       .  S
C839       C1179   1.402       .  A
C840       C1178   1.402       .  A
C840        C841   1.395       .  A
C840        F847   1.358       .  S
C841       C1181   1.408   1_554  A
C841        H846   1.083       .  S
C842       C1180   1.406       .  A
C842        C843   1.405       .  A
C843        F844   1.358       .  S
C848        C849   1.400       .  A
C848        C853   1.385       .  A
C848        H855   1.083       .  S
C849       C1189   1.407   1_554  A
C850       C1188   1.408       .  A
C850        C851   1.391       .  A
C850        F857   1.357       .  S
C851       C1191   1.401       .  A
C851        H856   1.083       .  S
C852       C1190   1.402   1_554  A
C852        C853   1.406       .  A
C853        F854   1.358       .  S
C858        C859   1.395       .  A
C858       C1202   1.383       .  A
C858        H865   1.084       .  S
C859        C860   1.401   1_554  A
C860       C1200   1.386       .  A
C860        F867   1.359       .  S
C861       C1199   1.384       .  A
C861        C862   1.403       .  A
C861        H866   1.083       .  S
C862        C863   1.407       .  A
C863       C1197   1.390       .  A
C863        F864   1.357       .  S
C868        C869   1.407       .  A
C868        C873   1.387       .  A
C868        H875   1.083       .  S
C869       C1209   1.402       .  A
C870       C1208   1.404       .  A
C870        C871   1.390       .  A
C870        F877   1.358       .  S
C871        C872   1.406       .  A
C871        H876   1.083       .  S
C872       C1212   1.401   1_554  A
C873       C1211   1.401       .  A
C873        F874   1.358       .  S
C878       C1218   1.403   1_554  A
C878        C883   1.394       .  A
C878        H885   1.084       .  S
C879       C1217   1.403       .  A
C879        C880   1.401       .  A
C880        C881   1.387       .  A
C880        F887   1.358       .  S
C881       C1221   1.405       .  A
C881        H886   1.084       .  S
C882       C1220   1.405   1_554  A
C882        C883   1.406       .  A
C883        F884   1.358       .  S
C888       C1228   1.407   1_554  A
C888        C893   1.395       .  A
C888        H895   1.083       .  S
C889       C1227   1.404       .  A
C889        C890   1.400       .  A
C890       C1230   1.388       .  A
C890        F897   1.358       .  S
C891       C1229   1.391       .  A
C891        C892   1.404   1_556  A
C891        H896   1.083       .  S
C892        C893   1.401       .  A
C893        F894   1.358       .  S
C898        C899   1.417       .  A
C898        C903   1.408       .  A
C898        H905   1.084       .  S
C899        C900   1.404       .  A
C900        C901   1.405       .  A
C900        F907   1.358       .  S
C901        C902   1.410       .  A
C901        H906   1.084       .  S
C902        C903   1.401       .  A
C903        F904   1.356       .  S
C908        C909   1.403       .  A
C908        C913   1.394       .  A
C908        H915   1.084       .  S
C909        C910   1.404       .  A
C910        C911   1.406       .  A
C910        F917   1.357       .  S
C911        C912   1.415       .  A
C911        H916   1.077       .  S
C912        C913   1.414       .  A
C913        F914   1.358       .  S
C918        C919   1.419       .  A
C918        C923   1.407       .  A
C918        H925   1.083       .  S
C919        C920   1.397       .  A
C920        C921   1.396       .  A
C920        F927   1.356       .  S
C921        C922   1.416       .  A
C921        H926   1.083       .  S
C922        C923   1.400       .  A
C923        F924   1.357       .  S
C928        C929   1.405       .  A
C928        C933   1.398       .  A
C928        H935   1.078       .  S
C929        C930   1.423       .  A
C930        C931   1.402       .  A
C930        F937   1.357       .  S
C931        C932   1.396       .  A
C931        H936   1.083       .  S
C932        C933   1.412       .  A
C933        F934   1.359       .  S
C938       C2295   1.412       .  A
C938        C943   1.406       .  A
C938        H945   1.084       .  S
C939       C2294   1.416       .  A
C939        C940   1.402       .  A
C940        C941   1.403       .  A
C940        F947   1.356       .  S
C941        C942   1.411       .  A
C941        H946   1.084       .  S
C942       C2299   1.401       .  A
C943       C2298   1.402       .  A
C943        F944   1.357       .  S
C948        C949   1.414       .  A
C948        C953   1.401       .  A
C948       H2311   1.084       .  S
C949        C950   1.417       .  A
C950        C951   1.413       .  A
C950        F957   1.353       .  S
C951        C952   1.411       .  A
C951        H956   1.083       .  S
C952        C953   1.407       .  A
C953       F2310   1.357       .  S
F954       C2309   1.357       .  S
H955       C2304   1.080       .  S
C958        C959   1.420       .  A
C958        C963   1.409       .  A
C959        C960   1.408       .  A
C960        C961   1.417       .  A
C960        F967   1.356       .  S
C961        C962   1.420       .  A
C961        H966   1.083       .  S
C962        C963   1.404       .  A
C968        C969   1.416       .  A
C968        C973   1.395       .  A
C968        H975   1.084       .  S
C969        C970   1.414       .  A
C970        C971   1.401       .  A
C970        F977   1.350       .  S
C971        C972   1.404       .  A
C971        H976   1.084       .  S
C972        C973   1.399       .  A
C973        F974   1.357       .  S
C978        C979   1.403       .  A
C978        C983   1.408       .  A
C978        H985   1.083       .  S
C979        C980   1.413       .  A
C980        C981   1.406       .  A
C980        F987   1.358       .  S
C981        C982   1.403       .  A
C981        H986   1.083       .  S
C982        C983   1.415       .  A
C983        F984   1.358       .  S
C988        C989   1.412       .  A
C988        C993   1.400       .  A
C988        H995   1.081       .  S
C989        C990   1.420       .  A
C990        C991   1.411       .  A
C990        F997   1.353       .  S
C991        C992   1.407       .  A
C991        H996   1.083       .  S
C992        C993   1.407       .  A
C993        F994   1.358       .  S
C998        C999   1.422       .  A
C998       C1003   1.408       .  A
C998       H1005   1.082       .  S
C999       C2040   1.531       .  S
C999       C2356   1.408       .  A
C1000      C2355   1.424       .  A
C1000      C1001   1.414       .  A
C1000      F1007   1.357       .  S
C1001      C2358   1.401       .  A
C1001      H1006   1.083       .  S
C1002      C2357   1.420       .  A
C1002      C1003   1.403       .  A
C1003      F1004   1.357       .  S
C1008      C2365   1.415       .  A
C1008      C1013   1.390       .  A
C1008      H1015   1.083       .  S
C1009      C2364   1.412   1_455  A
C1009      C1010   1.415       .  A
C1010      C1011   1.395       .  A
C1010      F1017   1.354       .  S
C1011      C1012   1.399       .  A
C1011      H1016   1.084       .  S
C1012      C2369   1.395   1_455  A
C1013      C2368   1.395       .  A
C1013      F1014   1.357       .  S
C1018      C1019   1.499       .  S
C1018      C2380   1.495   1_455  S
C1018      C2378   1.527       .  S
C1018      C1348   1.523       .  S
C1019      H1026   1.077       .  S
C1019      C1020   1.370       .  D
C1020      C2377   1.617       .  S
C1020      C1037   1.551       .  S
C1021      C2376   1.611       .  S
C1021      C1025   1.615       .  S
C1021      C2379   1.567       .  S
C1021      H1027   1.109       .  S
C1022      C2374   1.531       .  S
C1022      H1028   1.087       .  S
C1022      C2379   1.361       .  D
C1023      C2377   1.574       .  S
C1023      C2378   1.358       .  D
C1023      C2694   1.526       .  S
C1024      C2374   1.491       .  S
C1024      H1029   1.082       .  S
C1024      C1025   1.374       .  D
C1025      C1080   1.554       .  S
C1030      C1031   1.520       .  S
C1030      C1036   1.530       .  S
C1030      C1034   1.501       .  S
C1030      C1328   1.556       .  S
C1031      H1038   1.088       .  S
C1031      C1032   1.384       .  D
C1032      C1033   1.584       .  S
C1032      C1049   1.545       .  S
C1033      C1037   1.557       .  S
C1033      C1035   1.588       .  S
C1033      H1039   1.110       .  S
C1034      H1040   1.081       .  S
C1034      C1035   1.367       .  D
C1035      C1321   1.486       .  S
C1036      H1041   1.082       .  S
C1036      C1037   1.389       .  D
C1042      C1043   1.485       .  S
C1042      C1048   1.517       .  S
C1042      C1046   1.539       .  S
C1042      C1308   1.527       .  S
C1043      C1044   1.370       .  D
C1044      C1045   1.615       .  S
C1045      C1049   1.598       .  S
C1045      C1047   1.564       .  S
C1045      H1051   1.109       .  S
C1046      H1052   1.084       .  S
C1046      C1047   1.359       .  D
C1047      C1298   1.526       .  S
C1048      H1053   1.083       .  S
C1048      C1049   1.379       .  D
C1054      C2411   1.507       .  S
C1054      C1060   1.520   1_655  S
C1054      C1058   1.502       .  S
C1054      C1288   1.551       .  S
C1055      C2410   1.516       .  S
C1055      H1062   1.086       .  S
C1055      C1056   1.382       .  D
C1056      C2413   1.609       .  S
C1056      C1073   1.568       .  S
C1057      C2412   1.591       .  S
C1057      C1061   1.572   1_655  S
C1057      C2415   1.592   1_655  S
C1057      H1063   1.110   1_655  S
C1058      H1064   1.081   1_655  S
C1058      C2415   1.370   1_655  D
C1059      C2413   1.585       .  S
C1059      C2414   1.368       .  D
C1059      C1278   1.493       .  S
C1060      H1065   1.082       .  S
C1060      C1061   1.387       .  D
C1066      C1067   1.517       .  S
C1066      C1072   1.495       .  S
C1066      C1070   1.534       .  S
C1066      C1268   1.542       .  S
C1067      H1074   1.083       .  S
C1067      C1068   1.391       .  D
C1068      C1069   1.605       .  S
C1069      C1073   1.611       .  S
C1069      C1071   1.543       .  S
C1069      H1075   1.109       .  S
C1070      H1076   1.087       .  S
C1070      C1071   1.349       .  D
C1071      C1258   1.492       .  S
C1072      H1077   1.087       .  S
C1072      C1073   1.381       .  D
C1078      C1079   1.518       .  S
C1078      C1084   1.517       .  S
C1078      C1082   1.503       .  S
C1078      C1251   1.557       .  S
C1079      H1086   1.082       .  S
C1079      C1080   1.385       .  D
C1080      C1081   1.574       .  S
C1081      C1085   1.583       .  S
C1081      C1083   1.595       .  S
C1081      H1087   1.110       .  S
C1082      H1088   1.084       .  S
C1082      C1083   1.368       .  D
C1083      C1238   1.488       .  S
C1084      C1085   1.387       .  D
O1090      C1098   1.267       .  A
O1090     Co1110   1.987       .  S
O1091      C1099   1.298       .  A
O1092      C1100   1.263       .  A
O1092     Co1112   1.879       .  S
O1093      C1101   1.252   1_554  A
O1094      C1100   1.314       .  A
O1095      C1101   1.267       .  A
O1095     Co1110   2.015       .  S
O1096      C1099   1.254       .  A
O1096     Co1113   1.932       .  S
O1097     Co1112   1.961       .  S
C1098      C1208   1.463   1_556  S
C1099      C1241   1.491       .  S
C1100      C1301   1.507       .  S
C1101      C1228   1.467       .  S
O1102      C1115   1.267       .  A
O1102     Co1110   1.997       .  S
O1103      C1116   1.257       .  A
O1103     Co1111   1.996   1_565  S
O1104      C1117   1.265       .  A
O1105      C1118   1.237       .  A
O1106      C1118   1.252       .  A
O1106     Co1111   1.992   1_565  S
O1107      C1117   1.268       .  A
O1107     Co1110   1.986       .  S
O1108      C1115   1.275       .  A
O1109      C1116   1.241       .  A
Co1112     O1114   1.904       .  S
Co1113     O1114   1.928       .  S
C1115      C1248   1.509       .  S
C1116      C1221   1.459       .  S
C1117      C1311   1.468       .  S
C1118      C1198   1.450       .  S
O1119      C1127   1.265   1_655  A
O1119     Co1139   1.982   1_655  S
O1120      C1128   1.252       .  A
O1120     Co1140   1.980       .  S
O1121      C1129   1.243       .  A
O1121     Co1141   1.938       .  S
O1122      C1130   1.271   1_455  A
O1123      C1129   1.253       .  A
O1123     Co1140   1.991       .  S
O1124      C1130   1.264       .  A
O1124     Co1139   1.986   1_655  S
O1125      C1128   1.244       .  A
O1125     Co2498   1.951       .  S
O1126      C2483   1.265       .  A
C1127      O2482   1.264       .  A
C1127      C1351   1.458       .  S
C1128      C1191   1.463       .  S
C1129      C1231   1.464       .  S
C1130      C1291   1.498       .  S
O1131      C1144   1.266       .  A
O1131     Co1139   2.012       .  S
O1132      C1145   1.313       .  A
O1132     Co1140   2.129       .  S
O1133     Co2497   1.967       .  S
O1134      C2503   1.268   1_655  A
O1134     Co1142   1.873       .  S
O1135      C1147   1.315       .  A
O1135     Co1140   2.119       .  S
O1136      C1146   1.267       .  A
O1136     Co1139   1.984       .  S
O1137     Co1142   1.962   1_455  S
O1138      C1145   1.264       .  A
O1138     Co1141   1.888       .  S
Co1139     O2160   2.072   1_455  S
Co1140     O1143   2.268       .  S
Co1141     O2489   1.971       .  S
Co1141     O1143   1.907       .  S
Co1142     O2481   1.951       .  S
Co1142     O2499   1.869       .  S
O1143     Co2156   2.083       .  S
O1143     Co2498   1.870       .  S
C1144      C1218   1.460       .  S
C1145      C1341   1.507       .  S
C1146      C1178   1.462   1_556  S
C1147      O2490   1.268       .  A
C1147      C1281   1.485       .  S
O1148      C1156   1.254       .  A
O1148     Co1168   1.987       .  S
O1149      C1157   1.289       .  A
O1149     Co1169   2.059       .  S
O1150      C1158   1.270       .  A
O1150     Co1170   2.007       .  S
O1151     Co1171   1.949       .  S
O1152      C1158   1.282       .  A
O1152     Co1169   2.026       .  S
O1153      C1159   1.262       .  A
O1153     Co1168   1.984       .  S
O1154      C1157   1.256       .  A
O1154     Co1171   1.928       .  S
O1155     Co1170   1.944       .  S
C1156      C1181   1.472       .  S
C1157      C1261   1.487       .  S
C1158      C1318   1.493       .  S
C1159      C1201   1.455   1_556  S
O1160      C1173   1.288       .  A
O1160     Co1168   2.069       .  S
O1161      C1174   1.266       .  A
O1161     Co1169   1.988       .  S
O1162      C1175   1.269       .  A
O1163      C1176   1.250       .  A
O1163     Co1171   1.943       .  S
O1164      C1176   1.269       .  A
O1164     Co1169   2.010       .  S
O1165      C1175   1.306       .  A
O1165     Co1168   2.111       .  S
O1166      C1173   1.249       .  A
O1167      C1174   1.262       .  A
O1167     Co1170   1.959       .  S
Co1169     O1172   2.115       .  S
Co1170     O1172   1.903       .  S
Co1171     O1172   1.931       .  S
C1173      C1271   1.491       .  S
C1174      C1211   1.460       .  S
C1175      C1331   1.498       .  S
C1176      C1188   1.463       .  S
C1177      C1178   1.404   1_556  A
C1177      C1182   1.391       .  A
C1177      H1184   1.084       .  S
C1179      C1180   1.392       .  A
C1179      F1186   1.358       .  S
C1180      H1185   1.083       .  S
C1181      C1182   1.405       .  A
C1182      F1183   1.357       .  S
C1187      C1188   1.400       .  A
C1187      C1192   1.388       .  A
C1187      H1194   1.084       .  S
C1189      C1190   1.389       .  A
C1189      F1196   1.358       .  S
C1190      H1195   1.084       .  S
C1191      C1192   1.408       .  A
C1192      F1193   1.358       .  S
C1197      C1198   1.399       .  A
C1197      H1204   1.083       .  S
C1198      C1199   1.403       .  A
C1199      F1206   1.359       .  S
C1200      C1201   1.404   1_556  A
C1200      H1205   1.083       .  S
C1201      C1202   1.407       .  A
C1202      F1203   1.357       .  S
C1207      C1208   1.405   1_556  A
C1207      C1212   1.387       .  A
C1207      H1214   1.083       .  S
C1209      C1210   1.388       .  A
C1209      F1216   1.358       .  S
C1210      C1211   1.406       .  A
C1210      H1215   1.083       .  S
C1212      F1213   1.358       .  S
C1217      C1222   1.390       .  A
C1217      H1224   1.084       .  S
C1218      C1219   1.401       .  A
C1219      C1220   1.390       .  A
C1219      F1226   1.358       .  S
C1220      H1225   1.083       .  S
C1221      C1222   1.403       .  A
C1222      F1223   1.357       .  S
C1227      C1232   1.394       .  A
C1227      H1234   1.084       .  S
C1228      C1229   1.403       .  A
C1229      F1236   1.357       .  S
C1230      C1231   1.404       .  A
C1230      H1235   1.082       .  S
C1231      C1232   1.405       .  A
C1232      F1233   1.358       .  S
C1237      C1238   1.415       .  A
C1237      C1242   1.412       .  A
C1237      H1244   1.083       .  S
C1238      C1239   1.405       .  A
C1239      C1240   1.404       .  A
C1239      F1246   1.358       .  S
C1240      C1241   1.411       .  A
C1240      H1245   1.084       .  S
C1241      C1242   1.405       .  A
C1242      F1243   1.357       .  S
C1247      C1248   1.406       .  A
C1247      C1252   1.405       .  A
C1247      H1254   1.083       .  S
C1248      C1249   1.414       .  A
C1249      C1250   1.413       .  A
C1249      F1256   1.357       .  S
C1250      C1251   1.414       .  A
C1250      H1255   1.078       .  S
C1251      C1252   1.417       .  A
C1252      F1253   1.358       .  S
C1257      C1258   1.417       .  A
C1257      C1262   1.405       .  A
C1257      H1264   1.083       .  S
C1258      C1259   1.397       .  A
C1259      C1260   1.396       .  A
C1259      F1266   1.357       .  S
C1260      C1261   1.416       .  A
C1260      H1265   1.083       .  S
C1261      C1262   1.400       .  A
C1262      F1263   1.357       .  S
C1267      C1268   1.403       .  A
C1267      C1272   1.402       .  A
C1267      H1274   1.079       .  S
C1268      C1269   1.424       .  A
C1269      C1270   1.404       .  A
C1269      F1276   1.357       .  S
C1270      C1271   1.396       .  A
C1270      H1275   1.083       .  S
C1271      C1272   1.418       .  A
C1272      F1273   1.358       .  S
C1277      C2634   1.413       .  A
C1277      C1282   1.409       .  A
C1277      H1284   1.084       .  S
C1278      C2633   1.416       .  A
C1278      C1279   1.401       .  A
C1279      C1280   1.402       .  A
C1279      F1286   1.356       .  S
C1280      C1281   1.412       .  A
C1280      H1285   1.083       .  S
C1281      C2638   1.400       .  A
C1282      C2637   1.404       .  A
C1282      F1283   1.357       .  S
C1287      C1288   1.415       .  A
C1287      C1292   1.400       .  A
C1287      H2650   1.084       .  S
C1288      C1289   1.416       .  A
C1289      C1290   1.409       .  A
C1289      F1296   1.352       .  S
C1290      C1291   1.409       .  A
C1290      H1295   1.083       .  S
C1291      C1292   1.405       .  A
C1292      F2649   1.358       .  S
F1293      C2648   1.357       .  S
H1294      C2643   1.080       .  S
C1297      C1298   1.403       .  A
C1297      C1302   1.411       .  A
C1298      C1299   1.428       .  A
C1299      C1300   1.412       .  A
C1299      F1306   1.357       .  S
C1300      C1301   1.400       .  A
C1300      H1305   1.083       .  S
C1301      C1302   1.419       .  A
C1307      C1308   1.410       .  A
C1307      C1312   1.400       .  A
C1307      H1314   1.077       .  S
C1308      C1309   1.417       .  A
C1309      C1310   1.392       .  A
C1309      F1316   1.358       .  S
C1310      C1311   1.396       .  A
C1310      H1315   1.084       .  S
C1311      C1312   1.405       .  A
C1312      F1313   1.358       .  S
C1317      C1318   1.402       .  A
C1317      C1322   1.405       .  A
C1317      H1324   1.083       .  S
C1318      C1319   1.414       .  A
C1319      C1320   1.406       .  A
C1319      F1326   1.357       .  S
C1320      C1321   1.402       .  A
C1320      H1325   1.084       .  S
C1321      C1322   1.416       .  A
C1322      F1323   1.358       .  S
C1327      C1328   1.413       .  A
C1327      C1332   1.401       .  A
C1327      H1334   1.082       .  S
C1328      C1329   1.421       .  A
C1329      C1330   1.410       .  A
C1329      F1336   1.352       .  S
C1330      C1331   1.406       .  A
C1330      H1335   1.083       .  S
C1331      C1332   1.408       .  A
C1332      F1333   1.358       .  S
C1337      C1338   1.418       .  A
C1337      C1342   1.405       .  A
C1337      H1344   1.082       .  S
C1338      C2379   1.521       .  S
C1338      C2695   1.408       .  A
C1339      C2694   1.408       .  A
C1339      C1340   1.420       .  A
C1339      F1346   1.356       .  S
C1340      C2697   1.421       .  A
C1340      H1345   1.083       .  S
C1341      C2696   1.418       .  A
C1341      C1342   1.403       .  A
C1342      F1343   1.357       .  S
C1347      C2704   1.414       .  A
C1347      C1352   1.393       .  A
C1347      H1354   1.084       .  S
C1348      C2703   1.414   1_455  A
C1348      C1349   1.415       .  A
C1349      C1350   1.394       .  A
C1349      F1356   1.353       .  S
C1350      C1351   1.400       .  A
C1350      H1355   1.084       .  S
C1351      C2708   1.396   1_455  A
C1352      C2707   1.398       .  A
C1352      F1353   1.358       .  S
C1357      C1358   1.507       .  S
C1357      C1687   1.522       .  S
C1358      H1365   1.081       .  S
C1358      C1359   1.376       .  D
C1359      C1376   1.556       .  S
C1360      C1364   1.617   1_455  S
C1360      H1366   1.109       .  S
C1361      H1367   1.086       .  S
C1363      H1368   1.084       .  S
C1363      C1364   1.370       .  D
C1364      C1419   1.560       .  S
C1369      C1370   1.499       .  S
C1369      C1375   1.500       .  S
C1369      C1373   1.523       .  S
C1369      C1667   1.541       .  S
C1370      H1377   1.083       .  S
C1370      C1371   1.374       .  D
C1371      C1372   1.604       .  S
C1371      C1388   1.557       .  S
C1372      C1376   1.608       .  S
C1372      C1374   1.558       .  S
C1372      H1378   1.110       .  S
C1373      H1379   1.088       .  S
C1373      C1374   1.358       .  D
C1374      C1660   1.497       .  S
C1375      H1380   1.082       .  S
C1375      C1376   1.389       .  D
C1381      C1382   1.506       .  S
C1381      C1387   1.507       .  S
C1381      C1385   1.502       .  S
C1381      C1647   1.531       .  S
C1382      H2067   1.081   1_545  S
C1382      C1383   1.375       .  D
C1383      C1384   1.593       .  S
C1383      C2078   1.552   1_545  S
C1384      C1388   1.584       .  S
C1384      C1386   1.608       .  S
C1384      H1390   1.109       .  S
C1385      H1391   1.083       .  S
C1385      C1386   1.361       .  D
C1386      C1637   1.504       .  S
C1387      H1392   1.084       .  S
C1387      C1388   1.381       .  D
H1389      C2060   1.080       .  S
C1393      C1399   1.554       .  S
C1393      C1397   1.516       .  S
C1393      C1627   1.550       .  S
C1394      H1401   1.084       .  S
C1394      C1395   1.379       .  D
C1395      C1412   1.560       .  S
C1396      C1400   1.557       .  S
C1396      H1402   1.110       .  S
C1397      H1403   1.086       .  S
C1398      C1617   1.480       .  S
C1399      H1404   1.078       .  S
C1399      C1400   1.375       .  D
C1400      C2061   1.553       .  S
C1405      C1406   1.517       .  S
C1405      C1411   1.490       .  S
C1405      C1409   1.525       .  S
C1405      C1607   1.543       .  S
C1406      H1413   1.082       .  S
C1406      C1407   1.386       .  D
C1407      C1408   1.603       .  S
C1407      C2102   1.560       .  S
C1408      C1412   1.612       .  S
C1408      C1410   1.564       .  S
C1408      H1414   1.109       .  S
C1409      H1415   1.087       .  S
C1409      C1410   1.358       .  D
C1410      C1597   1.510       .  S
C1411      H1416   1.084       .  S
C1411      C1412   1.378       .  D
C1417      C1418   1.517       .  S
C1417      C1423   1.507       .  S
C1417      C1421   1.501       .  S
C1417      C1590   1.549       .  S
C1418      H1425   1.084       .  S
C1418      C1419   1.385       .  D
C1419      C1420   1.579       .  S
C1420      C1424   1.593       .  S
C1420      C1422   1.606       .  S
C1420      H1426   1.109       .  S
C1421      H1427   1.085       .  S
C1421      C1422   1.368       .  D
C1422      C1577   1.497       .  S
C1423      H2106   1.085   1_545  S
C1423      C1424   1.380       .  D
C1424      C2085   1.561   1_545  S
H1428      C2101   1.085       .  S
O1429      C1437   1.268       .  A
O1429     Co1449   2.002       .  S
O1430      C1438   1.324       .  A
O1430     Co2128   2.148       .  S
O1431      C1439   1.260       .  A
O1431     Co1451   1.873       .  S
O1432      C1440   1.251       .  A
O1432     Co1791   1.952       .  S
O1433      C1439   1.320       .  A
O1433     Co2128   2.153       .  S
O1434      C1440   1.264       .  A
O1434     Co1449   1.997       .  S
O1435      C1438   1.266       .  A
O1435     Co1452   1.875       .  S
O1436      C1776   1.257   1_554  A
O1436     Co1451   1.956       .  S
C1437      O1775   1.255       .  A
C1437      C1547   1.466       .  S
C1438      C1580   1.496       .  S
C1439      C1640   1.501       .  S
C1440      C1567   1.450       .  S
O1441      C1454   1.259       .  A
O1441     Co1449   1.977       .  S
O1442      C1455   1.253       .  A
O1442     Co1450   1.988       .  S
O1443      C1456   1.271       .  A
O1443     Co1790   2.023       .  S
O1444      C1457   1.240   1_556  A
O1444     Co2130   1.919   1_556  S
O1445      C1457   1.254       .  A
O1445     Co1450   1.985       .  S
O1446      C1456   1.255       .  A
O1446     Co1449   1.950       .  S
O1447      C1454   1.274       .  A
O1447     Co1791   2.041       .  S
O1448      C1455   1.242   1_556  A
O1448     Co2129   1.928   1_556  S
Co1449     O1792   2.066       .  S
Co1450     O2108   2.141       .  S
Co1450     O2111   2.148       .  S
Co1450     O2131   2.279   1_554  S
Co1451     O1782   2.000   1_554  S
Co1451     O2126   1.925   1_544  S
Co1451     O1453   1.881   1_554  S
Co1452     O1771   1.950       .  S
Co1452     O2122   1.920   1_544  S
Co1452     O1786   2.029   1_554  S
Co1452     O1453   1.865   1_554  S
O1453     Co1788   2.072       .  S
O1453     Co2128   2.271   1_556  S
C1454      C1587   1.502       .  S
C1455      C1560   1.448       .  S
C1456      C1650   1.478       .  S
C1457      C1537   1.443       .  S
O1458      C1466   1.255       .  A
O1458     Co1478   1.952       .  S
O1459      C1467   1.254       .  A
O1459     Co1479   1.983       .  S
O1460      C1468   1.241   1_556  A
O1460     Co1480   1.926   1_656  S
O1461      C1469   1.270       .  A
O1461     Co1820   2.021       .  S
O1462      C1468   1.253       .  A
O1462     Co1479   1.986       .  S
O1463      C1469   1.260       .  A
O1463     Co1478   1.982       .  S
O1464      C1467   1.246   1_556  A
O1465     Co1819   1.997       .  S
C1466      C1690   1.471       .  S
C1467      C1530   1.465       .  S
C1468      C1570   1.452       .  S
C1469      C1630   1.494       .  S
O1470      C1483   1.263       .  A
O1470     Co1478   1.987       .  S
O1471      C1484   1.320       .  A
O1471     Co1479   2.152   1_455  S
O1472      C1824   1.257   1_554  A
O1473     Co1481   1.871       .  S
O1474      C1486   1.320   1_455  A
O1474     Co1479   2.129   1_455  S
O1475      C1485   1.271       .  A
O1475     Co1478   2.012       .  S
O1476      C1822   1.255   1_554  A
O1476     Co1481   1.966       .  S
O1477      C1484   1.262       .  A
O1477     Co1480   1.879       .  S
Co1479     O1482   2.272   1_554  S
Co1480     O1804   1.996   1_554  S
Co1480     O1482   1.894   1_454  S
Co1481     O1800   2.016   1_554  S
C1483      O1815   1.254       .  A
C1483      C1557   1.462       .  S
C1484      C1680   1.512       .  S
C1485      O1811   1.256       .  A
C1485      C1517   1.466       .  S
C1486      C1620   1.480   1_655  S
O1487      C1495   1.250       .  A
O1487     Co1507   1.976       .  S
O1488      C1496   1.278       .  A
O1488     Co1508   2.023       .  S
O1489      C1497   1.270       .  A
O1489     Co1509   2.012       .  S
O1490      C1837   1.240       .  A
O1490     Co1510   1.933       .  S
O1491      C1497   1.277       .  A
O1491     Co1508   2.014       .  S
O1492      C1498   1.251       .  A
O1492     Co1507   1.972       .  S
O1493      C1496   1.267       .  A
O1493     Co1510   2.003       .  S
O1494      C1834   1.246   1_554  A
O1494     Co1509   1.955       .  S
C1495      O1833   1.247       .  A
C1495      C1520   1.469       .  S
C1496      C1600   1.500       .  S
C1497      C1657   1.494       .  S
C1498      O1829   1.242       .  A
C1498      C1540   1.445       .  S
O1499      C1512   1.308       .  A
O1499     Co1507   2.104       .  S
O1500      C1513   1.268       .  A
O1500     Co1508   2.002       .  S
O1501      C1514   1.266       .  A
O1501     Co1848   1.882       .  S
O1502      C1515   1.255   1_556  A
O1502     Co1510   1.961   1_556  S
O1503      C1515   1.269       .  A
O1503     Co1508   2.007       .  S
O1504      C1514   1.307       .  A
O1504     Co1507   2.097       .  S
O1505      C1512   1.266       .  A
O1505     Co1849   1.887       .  S
O1506      C1513   1.256   1_556  A
O1506     Co1509   1.961   1_556  S
Co1507     O1850   2.274       .  S
Co1508     O1511   2.079       .  S
Co1509     O1840   1.893   1_554  S
Co1509     O1511   1.892       .  S
Co1510     O1844   1.888   1_554  S
Co1510     O1511   1.886       .  S
O1511     Co1846   2.271   1_554  S
C1512      C1610   1.485       .  S
C1513      C1550   1.466       .  S
C1514      C1670   1.475       .  S
C1515      C1527   1.464       .  S
C1516      C1517   1.399       .  A
C1516      C1521   1.391       .  A
C1516      H1523   1.084       .  S
C1517      C1857   1.409       .  A
C1518      C1856   1.407   1_554  A
C1518      C1519   1.394       .  A
C1518      F1525   1.355       .  S
C1519      C1859   1.403   1_554  A
C1519      H1524   1.083       .  S
C1520      C1858   1.401       .  A
C1520      C1521   1.410       .  A
C1521      F1522   1.358       .  S
C1526      C1527   1.400       .  A
C1526      C1531   1.389       .  A
C1526      H1533   1.084       .  S
C1527      C1867   1.407   1_554  A
C1528      C1866   1.409       .  A
C1528      C1529   1.396       .  A
C1528      F1535   1.357       .  S
C1529      C1869   1.403       .  A
C1529      H1534   1.083       .  S
C1530      C1868   1.401   1_554  A
C1530      C1531   1.408       .  A
C1531      F1532   1.358       .  S
C1536      C1537   1.400       .  A
C1536      C1880   1.385       .  A
C1536      H1543   1.084       .  S
C1537      C1538   1.401   1_554  A
C1538      C1878   1.381       .  A
C1538      F1545   1.358       .  S
C1539      C1877   1.382       .  A
C1539      C1540   1.399       .  A
C1539      H1544   1.084       .  S
C1540      C1541   1.401       .  A
C1541      C1875   1.386       .  A
C1541      F1542   1.358       .  S
C1546      C1547   1.403       .  A
C1546      C1551   1.390       .  A
C1546      H1553   1.083       .  S
C1547      C1887   1.407       .  A
C1548      C1886   1.406   1_554  A
C1548      C1549   1.390       .  A
C1548      F1555   1.358       .  S
C1549      C1550   1.403       .  A
C1549      H1554   1.083       .  S
C1550      C1890   1.407   1_554  A
C1551      C1889   1.405       .  A
C1551      F1552   1.358       .  S
C1556      C1896   1.405   1_554  A
C1556      C1561   1.390       .  A
C1556      H1563   1.083       .  S
C1557      C1895   1.406       .  A
C1557      C1558   1.405       .  A
C1558      C1559   1.384       .  A
C1558      F1565   1.358       .  S
C1559      C1899   1.399       .  A
C1559      H1564   1.084       .  S
C1560      C1898   1.398   1_554  A
C1560      C1561   1.401       .  A
C1561      F1562   1.358       .  S
C1566      C1906   1.404   1_554  A
C1566      C1571   1.388       .  A
C1566      H1573   1.084       .  S
C1567      C1905   1.401       .  A
C1567      C1568   1.403       .  A
C1568      C1908   1.385       .  A
C1568      F1575   1.358       .  S
C1569      C1907   1.384       .  A
C1569      C1570   1.402   1_556  A
C1569      H1574   1.082       .  S
C1570      C1571   1.401       .  A
C1571      F1572   1.357       .  S
C1576      C1577   1.419       .  A
C1576      C1581   1.413       .  A
C1576      H1583   1.084       .  S
C1577      C1578   1.405       .  A
C1578      C1579   1.408       .  A
C1578      F1585   1.357   1_545  S
C1579      C1580   1.412       .  A
C1579      H1584   1.084   1_545  S
C1580      C1581   1.404       .  A
C1581      F1582   1.357       .  S
C1586      C1587   1.403       .  A
C1586      C1591   1.404       .  A
C1586      H1593   1.083       .  S
C1587      C1588   1.416       .  A
C1588      C1589   1.407       .  A
C1588      F1595   1.357       .  S
C1589      C1590   1.409       .  A
C1589      H1594   1.079       .  S
C1590      C1591   1.419       .  A
C1591      F1592   1.358       .  S
C1596      C1597   1.417       .  A
C1596      C1601   1.403       .  A
C1596      H1603   1.083       .  S
C1597      C1598   1.404       .  A
C1598      C1599   1.411       .  A
C1598      F1605   1.355       .  S
C1599      C1600   1.415       .  A
C1599      H1604   1.083       .  S
C1600      C1601   1.403       .  A
C1601      F1602   1.357       .  S
C1606      C1607   1.407       .  A
C1606      C1611   1.403       .  A
C1606      H1613   1.078       .  S
C1607      C1608   1.422       .  A
C1608      C1609   1.403       .  A
C1608      F1615   1.358       .  S
C1609      C1610   1.397       .  A
C1609      H1614   1.083       .  S
C1610      C1611   1.412       .  A
C1611      F1612   1.358       .  S
C1616      C1621   1.407       .  A
C1616      H1623   1.083       .  S
C1617      C1618   1.407       .  A
C1618      C1619   1.400       .  A
C1618      F1625   1.357       .  S
C1619      C1620   1.405   1_655  A
C1619      H1624   1.084       .  S
C1621      F1622   1.356       .  S
C1626      C1627   1.417       .  A
C1626      C1631   1.400       .  A
C1627      C1628   1.413       .  A
C1628      C1629   1.405       .  A
C1628      F1635   1.358       .  S
C1629      C1630   1.409       .  A
C1629      H1634   1.083       .  S
C1630      C1631   1.404       .  A
C1636      C1637   1.407       .  A
C1636      C1641   1.411       .  A
C1636      H2321   1.083   1_545  S
C1637      C1638   1.421       .  A
C1638      C1639   1.417       .  A
C1638      F1645   1.357       .  S
C1639      C1640   1.406       .  A
C1639      H1644   1.083       .  S
C1640      C1641   1.412       .  A
C1641      F2320   1.358   1_545  S
F1642      C2319   1.358       .  S
H1643      C2314   1.084       .  S
C1646      C1647   1.416       .  A
C1646      C1651   1.397       .  A
C1646      H1653   1.083       .  S
C1647      C1648   1.409       .  A
C1648      C1649   1.393       .  A
C1648      F1655   1.354       .  S
C1649      C1650   1.408       .  A
C1649      H1654   1.083       .  S
C1650      C1651   1.401       .  A
C1651      F1652   1.357       .  S
C1656      C1657   1.401       .  A
C1656      C1661   1.402       .  A
C1656      H1663   1.083       .  S
C1657      C1658   1.416       .  A
C1658      C1659   1.411       .  A
C1658      F1665   1.357       .  S
C1659      C1660   1.403       .  A
C1659      H1664   1.082       .  S
C1660      C1661   1.414       .  A
C1661      F1662   1.358       .  S
C1666      C1667   1.417       .  A
C1666      C1671   1.403       .  A
C1666      H1673   1.079       .  S
C1667      C1668   1.414       .  A
C1668      C1669   1.401       .  A
C1668      F1675   1.358       .  S
C1669      C1670   1.401       .  A
C1669      H1674   1.084       .  S
C1670      C1671   1.402       .  A
C1671      F1672   1.358       .  S
C1676      C1677   1.402   1_655  A
C1676      C1681   1.413       .  A
C1676      H1683   1.083       .  S
C1678      C1679   1.411       .  A
C1678      F1685   1.358       .  S
C1679      H1684   1.082       .  S
C1680      C1681   1.422   1_455  A
C1681      F1682   1.358       .  S
C1686      C1691   1.388       .  A
C1686      H1693   1.084       .  S
C1687      C1688   1.415       .  A
C1688      C1689   1.391       .  A
C1688      F1695   1.358       .  S
C1689      C1690   1.398       .  A
C1689      H1694   1.083       .  S
C1691      F1692   1.358       .  S
C1696      C1697   1.520       .  S
C1696      C2026   1.528       .  S
C1697      H1704   1.075       .  S
C1697      C1698   1.379       .  D
C1698      C1715   1.558       .  S
C1699      C1703   1.614   1_455  S
C1699      H1705   1.109       .  S
C1700      H1706   1.086       .  S
C1702      H1707   1.084       .  S
C1702      C1703   1.374       .  D
C1703      C1758   1.558       .  S
C1708      C1709   1.501       .  S
C1708      C1714   1.527       .  S
C1708      C1712   1.510       .  S
C1708      C2006   1.553       .  S
C1709      H1716   1.085       .  S
C1709      C1710   1.385       .  D
C1710      C1711   1.596       .  S
C1710      C1727   1.561       .  S
C1711      C1715   1.581       .  S
C1711      C1713   1.578       .  S
C1711      H1717   1.109       .  S
C1712      H1718   1.081       .  S
C1712      C1713   1.363       .  D
C1713      C1999   1.489       .  S
C1714      H1719   1.077       .  S
C1714      C1715   1.388       .  D
C1720      C1721   1.497   1_545  S
C1720      C1726   1.530       .  S
C1720      C1724   1.520       .  S
C1720      C1986   1.530       .  S
C1721      H2406   1.083       .  S
C1721      C1722   1.375       .  D
C1722      C1723   1.621   1_565  S
C1722      C2417   1.557       .  S
C1723      C1727   1.589       .  S
C1723      C1725   1.592       .  S
C1723      H1729   1.109       .  S
C1724      H1730   1.087       .  S
C1724      C1725   1.359       .  D
C1725      C1976   1.525       .  S
C1726      H1731   1.080       .  S
C1726      C1727   1.369       .  D
H1728      C2399   1.085       .  S
C1732      C1738   1.550       .  S
C1732      C1736   1.513       .  S
C1732      C1966   1.549       .  S
C1733      H1740   1.084       .  S
C1733      C1734   1.378       .  D
C1734      C1751   1.560       .  S
C1735      C1739   1.570       .  S
C1735      H1741   1.109       .  S
C1736      H1742   1.086       .  S
C1737      C1956   1.482       .  S
C1738      H1743   1.078       .  S
C1738      C1739   1.379       .  D
C1739      C2400   1.568       .  S
C1744      C1745   1.516       .  S
C1744      C1750   1.491       .  S
C1744      C1748   1.527       .  S
C1744      C1946   1.547       .  S
C1745      H1752   1.081       .  S
C1745      C1746   1.384       .  D
C1746      C1747   1.604       .  S
C1746      C2441   1.561       .  S
C1747      C1751   1.613       .  S
C1747      C1749   1.567       .  S
C1747      H1753   1.109       .  S
C1748      H1754   1.086       .  S
C1748      C1749   1.360       .  D
C1749      C1936   1.517       .  S
C1750      H1755   1.085       .  S
C1750      C1751   1.380       .  D
C1756      C1757   1.518       .  S
C1756      C1762   1.506       .  S
C1756      C1760   1.499       .  S
C1756      C1929   1.540       .  S
C1757      H1764   1.084       .  S
C1757      C1758   1.382       .  D
C1758      C1759   1.581       .  S
C1759      C1763   1.593       .  S
C1759      C1761   1.606       .  S
C1759      H1765   1.109       .  S
C1760      H1766   1.084       .  S
C1760      C1761   1.366       .  D
C1761      C1916   1.497       .  S
C1762      H2445   1.085   1_545  S
C1762      C1763   1.380       .  D
C1763      C2424   1.559   1_545  S
H1767      C2440   1.085       .  S
O1768      C1776   1.269       .  A
O1768     Co1788   2.004       .  S
O1769      C1777   1.323       .  A
O1769     Co2467   2.148       .  S
O1770      C1778   1.268       .  A
O1770     Co1790   1.897       .  S
O1771      C1779   1.251   1_554  A
O1772      C1778   1.324       .  A
O1772     Co2467   2.160       .  S
O1773      C1779   1.264       .  A
O1773     Co1788   1.999       .  S
O1774      C1777   1.266       .  A
O1774     Co1791   1.874       .  S
O1775     Co1790   1.958       .  S
C1776      C1886   1.464       .  S
C1777      C1919   1.497       .  S
C1778      C1979   1.519       .  S
C1779      C1906   1.452       .  S
O1780      C1793   1.260       .  A
O1780     Co1788   1.974       .  S
O1781      C1794   1.254       .  A
O1781     Co1789   1.999       .  S
O1782      C1795   1.266       .  A
O1783      C1796   1.242       .  A
O1783     Co2469   1.921       .  S
O1784      C1796   1.255       .  A
O1784     Co1789   1.984       .  S
O1785      C1795   1.258       .  A
O1785     Co1788   1.971       .  S
O1786      C1793   1.273       .  A
O1787      C1794   1.240       .  A
O1787     Co2468   1.924       .  S
Co1789     O2447   2.149       .  S
Co1789     O2450   2.154       .  S
Co1789     O2470   2.279       .  S
Co1790     O2465   1.930   1_545  S
Co1790     O1792   1.886       .  S
Co1791     O2461   1.918   1_545  S
Co1791     O1792   1.868       .  S
O1792     Co2467   2.275       .  S
C1793      C1926   1.492       .  S
C1794      C1899   1.450       .  S
C1795      C1989   1.469       .  S
C1796      C1876   1.448       .  S
O1797      C1805   1.257       .  A
O1797     Co1817   1.957       .  S
O1798      C1806   1.255       .  A
O1798     Co1818   1.990       .  S
O1799      C1807   1.242       .  A
O1799     Co1819   1.937   1_655  S
O1800      C1808   1.269       .  A
O1801      C1807   1.250       .  A
O1801     Co1818   1.976       .  S
O1802      C1808   1.262       .  A
O1802     Co1817   1.984       .  S
O1803      C1806   1.246       .  A
C1805      C2029   1.473       .  S
C1806      C1869   1.472       .  S
C1807      C1909   1.454       .  S
C1808      C1969   1.491       .  S
O1809      C1822   1.263       .  A
O1809     Co1817   1.985       .  S
O1810      C1823   1.318       .  A
O1810     Co1818   2.140   1_455  S
O1812     Co1820   1.875       .  S
O1813      C1825   1.316   1_455  A
O1813     Co1818   2.123   1_455  S
O1814      C1824   1.270       .  A
O1814     Co1817   2.011       .  S
O1815     Co1820   1.969       .  S
O1816      C1823   1.264       .  A
O1816     Co1819   1.878       .  S
Co1818     O1821   2.268       .  S
Co1819     O1821   1.905   1_455  S
C1822      C1896   1.458       .  S
C1823      C2019   1.509       .  S
C1824      C1856   1.468       .  S
C1825      C1959   1.478   1_655  S
O1826      C1834   1.255       .  A
O1826     Co1846   1.990       .  S
O1827      C1835   1.277       .  A
O1827     Co1847   2.024       .  S
O1828      C1836   1.266       .  A
O1828     Co1848   1.995       .  S
O1829     Co1849   1.936       .  S
O1830      C1836   1.279       .  A
O1830     Co1847   2.022       .  S
O1831      C1837   1.250   1_556  A
O1831     Co1846   1.971       .  S
O1832      C1835   1.267       .  A
O1832     Co1849   2.008       .  S
O1833     Co1848   1.964       .  S
C1834      C1859   1.473       .  S
C1835      C1939   1.506       .  S
C1836      C1996   1.487       .  S
C1837      C1879   1.446       .  S
O1838      C1851   1.308       .  A
O1838     Co1846   2.111       .  S
O1839      C1852   1.266       .  A
O1839     Co1847   1.996       .  S
O1840      C1853   1.270       .  A
O1841      C1854   1.256       .  A
O1841     Co1849   1.966       .  S
O1842      C1854   1.272       .  A
O1842     Co1847   2.014       .  S
O1843      C1853   1.307       .  A
O1843     Co1846   2.102       .  S
O1844      C1851   1.265       .  A
O1845      C1852   1.258       .  A
O1845     Co1848   1.968       .  S
Co1847     O1850   2.077       .  S
Co1848     O1850   1.884       .  S
Co1849     O1850   1.881       .  S
C1851      C1949   1.487       .  S
C1852      C1889   1.465       .  S
C1853      C2009   1.498       .  S
C1854      C1866   1.470       .  S
C1855      C1856   1.401       .  A
C1855      C1860   1.393       .  A
C1855      H1862   1.084       .  S
C1857      C1858   1.394       .  A
C1857      F1864   1.355       .  S
C1858      H1863   1.084       .  S
C1859      C1860   1.409       .  A
C1860      F1861   1.358       .  S
C1865      C1866   1.401       .  A
C1865      C1870   1.392       .  A
C1865      H1872   1.084       .  S
C1867      C1868   1.391       .  A
C1867      F1874   1.357       .  S
C1868      H1873   1.083       .  S
C1869      C1870   1.408       .  A
C1870      F1871   1.358       .  S
C1875      C1876   1.401       .  A
C1875      H1882   1.083       .  S
C1876      C1877   1.404       .  A
C1877      F1884   1.358       .  S
C1878      C1879   1.400   1_556  A
C1878      H1883   1.084       .  S
C1879      C1880   1.403       .  A
C1880      F1881   1.358       .  S
C1885      C1886   1.402       .  A
C1885      C1890   1.388       .  A
C1885      H1892   1.083       .  S
C1887      C1888   1.389       .  A
C1887      F1894   1.358       .  S
C1888      C1889   1.403       .  A
C1888      H1893   1.083       .  S
C1890      F1891   1.358       .  S
C1895      C1900   1.392       .  A
C1895      H1902   1.082       .  S
C1896      C1897   1.406       .  A
C1897      C1898   1.383       .  A
C1897      F1904   1.358       .  S
C1898      H1903   1.084       .  S
C1899      C1900   1.400       .  A
C1900      F1901   1.358       .  S
C1905      C1910   1.388       .  A
C1905      H1912   1.084       .  S
C1906      C1907   1.402       .  A
C1907      F1914   1.358       .  S
C1908      C1909   1.402       .  A
C1908      H1913   1.084       .  S
C1909      C1910   1.404       .  A
C1910      F1911   1.358       .  S
C1915      C1916   1.419       .  A
C1915      C1920   1.413       .  A
C1915      H1922   1.084       .  S
C1916      C1917   1.406       .  A
C1917      C1918   1.408       .  A
C1917      F1924   1.358   1_545  S
C1918      C1919   1.412       .  A
C1918      H1923   1.084   1_545  S
C1919      C1920   1.404       .  A
C1920      F1921   1.357       .  S
C1925      C1926   1.402       .  A
C1925      C1930   1.400       .  A
C1925      H1932   1.083       .  S
C1926      C1927   1.413       .  A
C1927      C1928   1.403       .  A
C1927      F1934   1.357       .  S
C1928      C1929   1.408       .  A
C1928      H1933   1.078       .  S
C1929      C1930   1.417       .  A
C1930      F1931   1.358       .  S
C1935      C1936   1.418       .  A
C1935      C1940   1.405       .  A
C1935      H1942   1.083       .  S
C1936      C1937   1.405       .  A
C1937      C1938   1.414       .  A
C1937      F1944   1.355       .  S
C1938      C1939   1.417       .  A
C1938      H1943   1.083       .  S
C1939      C1940   1.404       .  A
C1940      F1941   1.357       .  S
C1945      C1946   1.408       .  A
C1945      C1950   1.402       .  A
C1945      H1952   1.078       .  S
C1946      C1947   1.423       .  A
C1947      C1948   1.407       .  A
C1947      F1954   1.358       .  S
C1948      C1949   1.399       .  A
C1948      H1953   1.083       .  S
C1949      C1950   1.410       .  A
C1950      F1951   1.358       .  S
C1955      C1960   1.406       .  A
C1955      H1962   1.083       .  S
C1956      C1957   1.405       .  A
C1957      C1958   1.400       .  A
C1957      F1964   1.355       .  S
C1958      C1959   1.405   1_655  A
C1958      H1963   1.084       .  S
C1960      F1961   1.356       .  S
C1965      C1966   1.416       .  A
C1965      C1970   1.400       .  A
C1966      C1967   1.415       .  A
C1967      C1968   1.403       .  A
C1967      F1974   1.358       .  S
C1968      C1969   1.406       .  A
C1968      H1973   1.083       .  S
C1969      C1970   1.405       .  A
C1975      C1976   1.406       .  A
C1975      C1980   1.418       .  A
C1975      H2660   1.083   1_545  S
C1976      C1977   1.424       .  A
C1977      C1978   1.418       .  A
C1977      F1984   1.357       .  S
C1978      C1979   1.405       .  A
C1978      H1983   1.083       .  S
C1979      C1980   1.421       .  A
C1980      F2659   1.358   1_545  S
F1981      C2658   1.358       .  S
H1982      C2653   1.083       .  S
C1985      C1986   1.413       .  A
C1985      C1990   1.390       .  A
C1985      H1992   1.075       .  S
C1986      C1987   1.413       .  A
C1987      C1988   1.397       .  A
C1987      F1994   1.358   1_545  S
C1988      C1989   1.402       .  A
C1988      H1993   1.083   1_545  S
C1989      C1990   1.400       .  A
C1990      F1991   1.358       .  S
C1995      C1996   1.398       .  A
C1995      C2000   1.401       .  A
C1995      H2002   1.083       .  S
C1996      C1997   1.413       .  A
C1997      C1998   1.407       .  A
C1997      F2004   1.357       .  S
C1998      C1999   1.403       .  A
C1998      H2003   1.084       .  S
C1999      C2000   1.415       .  A
C2000      F2001   1.356       .  S
C2005      C2006   1.418       .  A
C2005      C2010   1.407       .  A
C2005      H2012   1.076       .  S
C2006      C2007   1.413       .  A
C2007      C2008   1.402       .  A
C2007      F2014   1.358       .  S
C2008      C2009   1.408       .  A
C2008      H2013   1.083       .  S
C2009      C2010   1.406       .  A
C2010      F2011   1.357       .  S
C2015      C2016   1.421   1_655  A
C2015      C2020   1.408       .  A
C2015      H2022   1.082       .  S
C2017      C2018   1.410       .  A
C2017      F2024   1.356       .  S
C2018      H2023   1.083       .  S
C2019      C2020   1.402   1_455  A
C2020      F2021   1.357       .  S
C2025      C2030   1.393       .  A
C2025      H2032   1.083       .  S
C2026      C2027   1.414       .  A
C2027      C2028   1.396       .  A
C2027      F2034   1.358       .  S
C2028      C2029   1.401       .  A
C2028      H2033   1.083       .  S
C2030      F2031   1.356       .  S
C2035      C2036   1.500       .  S
C2035      C2365   1.518       .  S
C2036      H2043   1.083       .  S
C2036      C2037   1.371       .  D
C2037      C2054   1.554       .  S
C2038      C2042   1.616   1_455  S
C2038      H2044   1.109       .  S
C2039      H2045   1.087       .  S
C2041      H2046   1.085       .  S
C2041      C2042   1.370       .  D
C2042      C2097   1.557       .  S
C2047      C2048   1.511       .  S
C2047      C2053   1.521       .  S
C2047      C2051   1.506       .  S
C2047      C2345   1.552       .  S
C2048      H2055   1.081       .  S
C2048      C2049   1.375       .  D
C2049      C2050   1.580       .  S
C2049      C2066   1.541       .  S
C2050      C2054   1.574       .  S
C2050      C2052   1.578       .  S
C2050      H2056   1.110       .  S
C2051      H2057   1.081       .  S
C2051      C2052   1.369       .  D
C2052      C2338   1.477       .  S
C2053      H2058   1.084       .  S
C2053      C2054   1.390       .  D
C2059      C2060   1.506       .  S
C2059      C2065   1.516       .  S
C2059      C2063   1.512       .  S
C2059      C2325   1.533       .  S
C2060      C2061   1.384       .  D
C2061      C2062   1.602       .  S
C2062      C2066   1.573       .  S
C2062      C2064   1.589       .  S
C2062      H2068   1.109       .  S
C2063      H2069   1.088       .  S
C2063      C2064   1.357       .  D
C2064      C2315   1.506       .  S
C2065      H2070   1.082       .  S
C2065      C2066   1.376       .  D
C2071      C2077   1.551       .  S
C2071      C2075   1.513       .  S
C2071      C2305   1.557       .  S
C2072      H2079   1.085       .  S
C2072      C2073   1.384       .  D
C2073      C2090   1.555       .  S
C2074      C2078   1.558       .  S
C2074      H2080   1.110       .  S
C2075      H2081   1.084       .  S
C2076      C2295   1.474   1_655  S
C2077      H2082   1.079       .  S
C2077      C2078   1.383       .  D
C2083      C2084   1.511       .  S
C2083      C2089   1.487       .  S
C2083      C2087   1.529       .  S
C2083      C2285   1.535       .  S
C2084      H2091   1.082       .  S
C2084      C2085   1.384       .  D
C2085      C2086   1.610       .  S
C2086      C2090   1.616       .  S
C2086      C2088   1.567       .  S
C2086      H2092   1.109       .  S
C2087      H2093   1.086       .  S
C2087      C2088   1.359       .  D
C2088      C2275   1.521       .  S
C2089      H2094   1.086       .  S
C2089      C2090   1.372       .  D
C2095      C2096   1.517       .  S
C2095      C2101   1.506       .  S
C2095      C2099   1.500       .  S
C2095      C2268   1.543       .  S
C2096      H2103   1.084       .  S
C2096      C2097   1.385       .  D
C2097      C2098   1.578       .  S
C2098      C2102   1.594       .  S
C2098      C2100   1.605       .  S
C2098      H2104   1.109       .  S
C2099      H2105   1.084       .  S
C2099      C2100   1.367       .  D
C2100      C2255   1.496       .  S
C2101      C2102   1.379       .  D
O2107      C2115   1.265       .  A
O2107     Co2127   1.993       .  S
O2108      C2116   1.320       .  A
O2109      C2117   1.264       .  A
O2109     Co2129   1.879       .  S
O2110      C2118   1.254       .  A
O2110     Co2469   1.955       .  S
O2111      C2117   1.320       .  A
O2112      C2118   1.267       .  A
O2112     Co2127   2.005       .  S
O2113      C2116   1.265       .  A
O2113     Co2130   1.877       .  S
O2114      C2454   1.259   1_554  A
O2114     Co2129   1.964       .  S
C2115      O2453   1.257       .  A
C2115      C2225   1.463       .  S
C2116      C2258   1.495       .  S
C2117      C2318   1.505       .  S
C2118      C2245   1.457       .  S
O2119      C2132   1.259       .  A
O2119     Co2127   1.973       .  S
O2120      C2133   1.257       .  A
O2120     Co2128   1.998   1_565  S
O2121      C2134   1.267       .  A
O2121     Co2468   2.010       .  S
O2122      C2135   1.239   1_556  A
O2123      C2135   1.250       .  A
O2123     Co2128   1.972   1_565  S
O2124      C2134   1.259       .  A
O2124     Co2127   1.968       .  S
O2125      C2132   1.272       .  A
O2125     Co2469   2.032       .  S
O2126      C2133   1.242   1_556  A
Co2127     O2470   2.072       .  S
Co2129     O2460   2.007   1_554  S
Co2129     O2131   1.877   1_554  S
Co2130     O2449   1.951       .  S
Co2130     O2464   2.027   1_554  S
Co2130     O2131   1.866   1_554  S
O2131     Co2466   2.074       .  S
C2132      C2265   1.494       .  S
C2133      C2238   1.463       .  S
C2134      C2328   1.464       .  S
C2135      C2215   1.439       .  S
O2136      C2144   1.267       .  A
O2136     Co2156   1.984       .  S
O2137      C2145   1.253       .  A
O2137     Co2157   1.982       .  S
O2138      C2146   1.241       .  A
O2138     Co2158   1.934   1_655  S
O2139      C2147   1.271       .  A
O2139     Co2498   2.017       .  S
O2140      C2146   1.252       .  A
O2140     Co2157   1.987       .  S
O2141      C2147   1.270       .  A
O2141     Co2156   2.004       .  S
O2142      C2145   1.245   1_556  A
O2143     Co2497   1.992       .  S
C2144      C2368   1.455       .  S
C2145      C2208   1.467       .  S
C2146      C2248   1.461       .  S
C2147      C2308   1.505       .  S
O2148      C2161   1.264       .  A
O2148     Co2156   2.001       .  S
O2149      C2162   1.317       .  A
O2149     Co2157   2.143   1_455  S
O2150      C2502   1.261   1_554  A
O2151     Co2159   1.876       .  S
O2152      C2164   1.317   1_455  A
O2152     Co2157   2.123   1_455  S
O2153      C2163   1.269       .  A
O2153     Co2156   2.000       .  S
O2154      C2500   1.254   1_554  A
O2154     Co2159   1.970       .  S
O2155      C2162   1.264       .  A
O2155     Co2158   1.880       .  S
Co2157     O2160   2.270   1_554  S
Co2158     O2482   1.987   1_554  S
Co2158     O2160   1.898   1_454  S
Co2159     O2478   2.021   1_554  S
C2161      O2493   1.252       .  A
C2161      C2235   1.462       .  S
C2162      C2358   1.507       .  S
C2163      O2489   1.262       .  A
C2163      C2195   1.466       .  S
C2164      C2298   1.473   1_655  S
O2165      C2173   1.254       .  A
O2165     Co2185   1.989       .  S
O2166      C2174   1.281       .  A
O2166     Co2186   2.030       .  S
O2167      C2175   1.264       .  A
O2167     Co2187   1.989   1_554  S
O2168      C2515   1.240   1_554  A
O2168     Co2188   1.934       .  S
O2169      C2175   1.279       .  A
O2169     Co2186   2.020       .  S
O2170      C2176   1.249       .  A
O2170     Co2185   1.965       .  S
O2171      C2174   1.269       .  A
O2171     Co2188   2.007       .  S
O2172      C2512   1.245   1_554  A
O2172     Co2187   1.955   1_554  S
C2173      O2511   1.244       .  A
C2173      C2198   1.472       .  S
C2174      C2278   1.509       .  S
C2175      C2335   1.479       .  S
C2176      O2507   1.240       .  A
C2176      C2218   1.444       .  S
O2177      C2190   1.306       .  A
O2177     Co2185   2.095       .  S
O2178      C2191   1.268       .  A
O2178     Co2186   1.994       .  S
O2179      C2192   1.266       .  A
O2179     Co2526   1.881       .  S
O2180      C2193   1.256   1_556  A
O2180     Co2188   1.965   1_556  S
O2181      C2193   1.269       .  A
O2181     Co2186   2.001       .  S
O2182      C2192   1.305       .  A
O2182     Co2185   2.104       .  S
O2183      C2190   1.266       .  A
O2183     Co2527   1.882       .  S
O2184      C2191   1.260   1_556  A
O2184     Co2187   1.965       .  S
Co2185     O2528   2.272       .  S
Co2186     O2189   2.076       .  S
Co2187     O2518   1.892       .  S
Co2187     O2189   1.886   1_556  S
Co2188     O2522   1.887   1_554  S
Co2188     O2189   1.880       .  S
O2189     Co2524   2.272   1_554  S
C2190      C2288   1.474       .  S
C2191      C2228   1.463       .  S
C2192      C2348   1.500       .  S
C2193      C2205   1.466       .  S
C2194      C2195   1.402       .  A
C2194      C2199   1.392       .  A
C2194      H2201   1.084       .  S
C2195      C2535   1.405       .  A
C2196      C2534   1.406       .  A
C2196      C2197   1.396       .  A
C2196      F2203   1.357       .  S
C2197      C2537   1.405   1_554  A
C2197      H2202   1.083       .  S
C2198      C2536   1.405       .  A
C2198      C2199   1.408       .  A
C2199      F2200   1.358       .  S
C2204      C2205   1.400       .  A
C2204      C2209   1.387       .  A
C2204      H2211   1.084       .  S
C2205      C2545   1.408   1_554  A
C2206      C2544   1.408       .  A
C2206      C2207   1.390       .  A
C2206      F2213   1.357       .  S
C2207      C2547   1.400       .  A
C2207      H2212   1.083       .  S
C2208      C2546   1.402   1_554  A
C2208      C2209   1.408       .  A
C2209      F2210   1.358       .  S
C2214      C2215   1.401       .  A
C2214      C2558   1.384       .  A
C2214      H2221   1.084       .  S
C2215      C2216   1.400   1_554  A
C2216      C2556   1.377       .  A
C2216      F2223   1.358       .  S
C2217      C2555   1.380       .  A
C2217      C2218   1.400       .  A
C2217      H2222   1.084       .  S
C2218      C2219   1.403       .  A
C2219      C2553   1.385       .  A
C2219      F2220   1.358       .  S
C2224      C2225   1.405       .  A
C2224      C2229   1.391       .  A
C2224      H2231   1.083       .  S
C2225      C2565   1.404       .  A
C2226      C2564   1.403   1_554  A
C2226      C2227   1.389       .  A
C2226      F2233   1.358       .  S
C2227      C2228   1.405       .  A
C2227      H2232   1.083       .  S
C2228      C2568   1.405   1_554  A
C2229      C2567   1.404       .  A
C2229      F2230   1.358       .  S
C2234      C2574   1.401   1_554  A
C2234      C2239   1.392       .  A
C2234      H2241   1.084       .  S
C2235      C2573   1.406       .  A
C2235      C2236   1.405       .  A
C2236      C2237   1.390       .  A
C2236      F2243   1.358       .  S
C2237      C2577   1.401       .  A
C2237      H2242   1.084       .  S
C2238      C2576   1.405   1_554  A
C2238      C2239   1.406       .  A
C2239      F2240   1.357       .  S
C2244      C2584   1.401   1_554  A
C2244      C2249   1.390       .  A
C2244      H2251   1.084       .  S
C2245      C2583   1.404       .  A
C2245      C2246   1.403       .  A
C2246      C2586   1.388       .  A
C2246      F2253   1.358       .  S
C2247      C2585   1.386       .  A
C2247      C2248   1.404   1_556  A
C2247      H2252   1.083       .  S
C2248      C2249   1.406       .  A
C2249      F2250   1.357       .  S
C2254      C2255   1.419       .  A
C2254      C2259   1.412       .  A
C2254      H2261   1.084       .  S
C2255      C2256   1.405       .  A
C2256      C2257   1.408       .  A
C2256      F2263   1.358       .  S
C2257      C2258   1.412       .  A
C2257      H2262   1.084       .  S
C2258      C2259   1.403       .  A
C2259      F2260   1.357       .  S
C2264      C2265   1.402       .  A
C2264      C2269   1.401       .  A
C2264      H2271   1.083       .  S
C2265      C2266   1.414       .  A
C2266      C2267   1.404       .  A
C2266      F2273   1.357       .  S
C2267      C2268   1.408       .  A
C2267      H2272   1.078       .  S
C2268      C2269   1.418       .  A
C2269      F2270   1.358       .  S
C2274      C2275   1.420       .  A
C2274      C2279   1.406       .  A
C2274      H2281   1.082       .  S
C2275      C2276   1.406       .  A
C2276      C2277   1.415       .  A
C2276      F2283   1.355       .  S
C2277      C2278   1.418       .  A
C2277      H2282   1.083       .  S
C2278      C2279   1.403       .  A
C2279      F2280   1.357       .  S
C2284      C2285   1.406       .  A
C2284      C2289   1.399       .  A
C2284      H2291   1.078       .  S
C2285      C2286   1.421       .  A
C2286      C2287   1.399       .  A
C2286      F2293   1.358       .  S
C2287      C2288   1.395       .  A
C2287      H2292   1.083       .  S
C2288      C2289   1.409       .  A
C2289      F2290   1.358       .  S
C2294      C2299   1.406       .  A
C2294      H2301   1.084       .  S
C2295      C2296   1.404   1_455  A
C2296      C2297   1.398       .  A
C2296      F2303   1.356       .  S
C2297      C2298   1.405   1_655  A
C2297      H2302   1.084       .  S
C2299      F2300   1.357       .  S
C2304      C2305   1.413       .  A
C2304      C2309   1.403       .  A
C2305      C2306   1.419       .  A
C2306      C2307   1.411       .  A
C2306      F2313   1.356       .  S
C2307      C2308   1.408       .  A
C2307      H2312   1.083       .  S
C2308      C2309   1.410       .  A
C2314      C2315   1.403       .  A
C2314      C2319   1.411       .  A
C2315      C2316   1.421       .  A
C2316      C2317   1.415       .  A
C2316      F2323   1.358       .  S
C2317      C2318   1.403       .  A
C2317      H2322   1.083       .  S
C2318      C2319   1.418       .  A
C2324      C2325   1.415       .  A
C2324      C2329   1.405       .  A
C2324      H2331   1.079       .  S
C2325      C2326   1.415       .  A
C2326      C2327   1.390       .  A
C2326      F2333   1.358       .  S
C2327      C2328   1.394       .  A
C2327      H2332   1.084       .  S
C2328      C2329   1.402       .  A
C2329      F2330   1.358       .  S
C2334      C2335   1.400       .  A
C2334      C2339   1.403       .  A
C2334      H2341   1.083       .  S
C2335      C2336   1.409       .  A
C2336      C2337   1.403       .  A
C2336      F2343   1.358       .  S
C2337      C2338   1.403       .  A
C2337      H2342   1.084       .  S
C2338      C2339   1.413       .  A
C2339      F2340   1.358       .  S
C2344      C2345   1.409       .  A
C2344      C2349   1.394       .  A
C2344      H2351   1.084       .  S
C2345      C2346   1.421       .  A
C2346      C2347   1.414       .  A
C2346      F2353   1.352       .  S
C2347      C2348   1.408       .  A
C2347      H2352   1.083       .  S
C2348      C2349   1.411       .  A
C2349      F2350   1.358       .  S
C2354      C2355   1.402   1_655  A
C2354      C2359   1.412       .  A
C2354      H2361   1.083       .  S
C2356      C2357   1.420       .  A
C2356      F2363   1.356       .  S
C2357      H2362   1.083       .  S
C2358      C2359   1.420   1_455  A
C2359      F2360   1.358       .  S
C2364      C2369   1.389       .  A
C2364      H2371   1.083       .  S
C2365      C2366   1.413       .  A
C2366      C2367   1.392       .  A
C2366      F2373   1.354       .  S
C2367      C2368   1.399       .  A
C2367      H2372   1.084       .  S
C2369      F2370   1.357       .  S
C2374      C2375   1.504       .  S
C2374      C2704   1.528       .  S
C2375      H2382   1.080       .  S
C2375      C2376   1.370       .  D
C2376      C2393   1.553       .  S
C2377      C2381   1.618   1_455  S
C2377      H2383   1.109       .  S
C2378      H2384   1.087       .  S
C2380      H2385   1.084       .  S
C2380      C2381   1.371       .  D
C2381      C2436   1.562       .  S
C2386      C2387   1.513       .  S
C2386      C2392   1.520       .  S
C2386      C2390   1.506       .  S
C2386      C2684   1.552       .  S
C2387      H2394   1.085       .  S
C2387      C2388   1.378       .  D
C2388      C2389   1.576       .  S
C2388      C2405   1.541       .  S
C2389      C2393   1.573       .  S
C2389      C2391   1.586       .  S
C2389      H2395   1.110       .  S
C2390      H2396   1.080       .  S
C2390      C2391   1.369       .  D
C2391      C2677   1.483       .  S
C2392      H2397   1.084       .  S
C2392      C2393   1.389       .  D
C2398      C2399   1.506       .  S
C2398      C2404   1.536       .  S
C2398      C2402   1.512       .  S
C2398      C2664   1.540       .  S
C2399      C2400   1.384       .  D
C2400      C2401   1.608       .  S
C2401      C2405   1.570       .  S
C2401      C2403   1.592       .  S
C2401      H2407   1.110       .  S
C2402      H2408   1.088       .  S
C2402      C2403   1.359       .  D
C2403      C2654   1.513       .  S
C2404      H2409   1.078       .  S
C2404      C2405   1.372       .  D
C2410      C2416   1.555       .  S
C2410      C2414   1.509       .  S
C2410      C2644   1.561       .  S
C2411      H2418   1.085       .  S
C2411      C2412   1.378       .  D
C2412      C2429   1.559       .  S
C2413      C2417   1.549       .  S
C2413      H2419   1.110       .  S
C2414      H2420   1.084       .  S
C2415      C2634   1.479       .  S
C2416      H2421   1.080       .  S
C2416      C2417   1.389       .  D
C2422      C2423   1.514       .  S
C2422      C2428   1.490       .  S
C2422      C2426   1.527       .  S
C2422      C2624   1.541       .  S
C2423      H2430   1.082       .  S
C2423      C2424   1.385       .  D
C2424      C2425   1.605       .  S
C2425      C2429   1.612       .  S
C2425      C2427   1.564       .  S
C2425      H2431   1.109       .  S
C2426      H2432   1.087       .  S
C2426      C2427   1.358       .  D
C2427      C2614   1.512       .  S
C2428      H2433   1.086       .  S
C2428      C2429   1.378       .  D
C2434      C2435   1.519       .  S
C2434      C2440   1.507       .  S
C2434      C2438   1.500       .  S
C2434      C2607   1.547       .  S
C2435      H2442   1.083       .  S
C2435      C2436   1.388       .  D
C2436      C2437   1.580       .  S
C2437      C2441   1.597       .  S
C2437      C2439   1.603       .  S
C2437      H2443   1.109       .  S
C2438      H2444   1.083       .  S
C2438      C2439   1.364       .  D
C2439      C2594   1.499       .  S
C2440      C2441   1.380       .  D
O2446      C2454   1.266       .  A
O2446     Co2466   1.990       .  S
O2447      C2455   1.322       .  A
O2448      C2456   1.264       .  A
O2448     Co2468   1.878       .  S
O2449      C2457   1.251   1_554  A
O2450      C2456   1.322       .  A
O2451      C2457   1.267       .  A
O2451     Co2466   2.009       .  S
O2452      C2455   1.266       .  A
O2452     Co2469   1.879       .  S
O2453     Co2468   1.959       .  S
C2454      C2564   1.460       .  S
C2455      C2597   1.500       .  S
C2456      C2657   1.507       .  S
C2457      C2584   1.449       .  S
O2458      C2471   1.262       .  A
O2458     Co2466   1.978       .  S
O2459      C2472   1.256       .  A
O2459     Co2467   1.996   1_565  S
O2460      C2473   1.269       .  A
O2461      C2474   1.241       .  A
O2462      C2474   1.254       .  A
O2462     Co2467   1.983   1_565  S
O2463      C2473   1.263       .  A
O2463     Co2466   1.983       .  S
O2464      C2471   1.271       .  A
O2465      C2472   1.241       .  A
Co2468     O2470   1.873       .  S
Co2469     O2470   1.873       .  S
C2471      C2604   1.494       .  S
C2472      C2577   1.449       .  S
C2473      C2667   1.479       .  S
C2474      C2554   1.442       .  S
O2475      C2483   1.266       .  A
O2475     Co2495   1.984       .  S
O2476      C2484   1.252       .  A
O2476     Co2496   1.977       .  S
O2477      C2485   1.244       .  A
O2477     Co2497   1.939   1_655  S
O2478      C2486   1.272       .  A
O2479      C2485   1.252       .  A
O2479     Co2496   1.981       .  S
O2480      C2486   1.272       .  A
O2480     Co2495   2.009       .  S
O2481      C2484   1.245       .  A
C2483      C2707   1.465       .  S
C2484      C2547   1.463       .  S
C2485      C2587   1.456       .  S
C2486      C2647   1.509       .  S
O2487      C2500   1.263       .  A
O2487     Co2495   1.995       .  S
O2488      C2501   1.318       .  A
O2488     Co2496   2.143   1_455  S
O2490     Co2498   1.880       .  S
O2491      C2503   1.317       .  A
O2491     Co2496   2.123   1_455  S
O2492      C2502   1.272       .  A
O2492     Co2495   2.007       .  S
O2493     Co2498   1.961       .  S
O2494      C2501   1.263       .  A
O2494     Co2497   1.886       .  S
Co2496     O2499   2.267       .  S
Co2497     O2499   1.904   1_455  S
C2500      C2574   1.452       .  S
C2501      C2697   1.513       .  S
C2502      C2534   1.467   1_556  S
C2503      C2637   1.477       .  S
O2504      C2512   1.255       .  A
O2504     Co2524   1.994       .  S
O2505      C2513   1.280       .  A
O2505     Co2525   2.029       .  S
O2506      C2514   1.266       .  A
O2506     Co2526   1.995       .  S
O2507     Co2527   1.934       .  S
O2508      C2514   1.280       .  A
O2508     Co2525   2.023       .  S
O2509      C2515   1.248       .  A
O2509     Co2524   1.957       .  S
O2510      C2513   1.267       .  A
O2510     Co2527   2.002       .  S
O2511     Co2526   1.953       .  S
C2512      C2537   1.474       .  S
C2513      C2617   1.504       .  S
C2514      C2674   1.484       .  S
C2515      C2557   1.439   1_556  S
O2516      C2529   1.307       .  A
O2516     Co2524   2.099       .  S
O2517      C2530   1.267       .  A
O2517     Co2525   1.988       .  S
O2518      C2531   1.267       .  A
O2519      C2532   1.255       .  A
O2519     Co2527   1.959       .  S
O2520      C2532   1.271       .  A
O2520     Co2525   2.010       .  S
O2521      C2531   1.303       .  A
O2521     Co2524   2.097       .  S
O2522      C2529   1.267       .  A
O2523      C2530   1.261       .  A
O2523     Co2526   1.970       .  S
Co2525     O2528   2.075       .  S
Co2526     O2528   1.886       .  S
Co2527     O2528   1.879       .  S
C2529      C2627   1.481       .  S
C2530      C2567   1.462       .  S
C2531      C2687   1.498       .  S
C2532      C2544   1.464       .  S
C2533      C2534   1.402   1_556  A
C2533      C2538   1.391       .  A
C2533      H2540   1.084       .  S
C2535      C2536   1.395       .  A
C2535      F2542   1.357       .  S
C2536      H2541   1.083       .  S
C2537      C2538   1.408       .  A
C2538      F2539   1.358       .  S
C2543      C2544   1.400       .  A
C2543      C2548   1.389       .  A
C2543      H2550   1.083       .  S
C2545      C2546   1.393       .  A
C2545      F2552   1.357       .  S
C2546      H2551   1.083       .  S
C2547      C2548   1.408       .  A
C2548      F2549   1.358       .  S
C2553      C2554   1.400       .  A
C2553      H2560   1.084       .  S
C2554      C2555   1.401       .  A
C2555      F2562   1.358       .  S
C2556      C2557   1.400   1_556  A
C2556      H2561   1.084       .  S
C2557      C2558   1.401       .  A
C2558      F2559   1.358       .  S
C2563      C2564   1.403       .  A
C2563      C2568   1.387       .  A
C2563      H2570   1.083       .  S
C2565      C2566   1.385       .  A
C2565      F2572   1.358       .  S
C2566      C2567   1.404       .  A
C2566      H2571   1.083       .  S
C2568      F2569   1.358       .  S
C2573      C2578   1.387       .  A
C2573      H2580   1.082       .  S
C2574      C2575   1.400       .  A
C2575      C2576   1.385       .  A
C2575      F2582   1.358       .  S
C2576      H2581   1.084       .  S
C2577      C2578   1.398       .  A
C2578      F2579   1.358       .  S
C2583      C2588   1.389       .  A
C2583      H2590   1.084       .  S
C2584      C2585   1.400       .  A
C2585      F2592   1.358       .  S
C2586      C2587   1.402       .  A
C2586      H2591   1.082       .  S
C2587      C2588   1.402       .  A
C2588      F2589   1.358       .  S
C2593      C2594   1.421       .  A
C2593      C2598   1.413       .  A
C2593      H2600   1.084       .  S
C2594      C2595   1.404       .  A
C2595      C2596   1.410       .  A
C2595      F2602   1.357       .  S
C2596      C2597   1.414       .  A
C2596      H2601   1.084       .  S
C2597      C2598   1.403       .  A
C2598      F2599   1.357       .  S
C2603      C2604   1.404       .  A
C2603      C2608   1.403       .  A
C2603      H2610   1.083       .  S
C2604      C2605   1.410       .  A
C2605      C2606   1.403       .  A
C2605      F2612   1.357       .  S
C2606      C2607   1.411       .  A
C2606      H2611   1.077       .  S
C2607      C2608   1.417       .  A
C2608      F2609   1.358       .  S
C2613      C2614   1.418       .  A
C2613      C2618   1.406       .  A
C2613      H2620   1.083       .  S
C2614      C2615   1.404       .  A
C2615      C2616   1.411       .  A
C2615      F2622   1.355       .  S
C2616      C2617   1.417       .  A
C2616      H2621   1.083       .  S
C2617      C2618   1.404       .  A
C2618      F2619   1.357       .  S
C2623      C2624   1.408       .  A
C2623      C2628   1.402       .  A
C2623      H2630   1.078       .  S
C2624      C2625   1.422       .  A
C2625      C2626   1.403       .  A
C2625      F2632   1.358       .  S
C2626      C2627   1.396       .  A
C2626      H2631   1.083       .  S
C2627      C2628   1.409       .  A
C2628      F2629   1.358       .  S
C2633      C2638   1.403       .  A
C2633      H2640   1.084       .  S
C2634      C2635   1.406   1_455  A
C2635      C2636   1.398       .  A
C2635      F2642   1.356       .  S
C2636      C2637   1.403   1_655  A
C2636      H2641   1.084       .  S
C2638      F2639   1.357       .  S
C2643      C2644   1.414       .  A
C2643      C2648   1.405       .  A
C2644      C2645   1.419       .  A
C2645      C2646   1.413       .  A
C2645      F2652   1.357       .  S
C2646      C2647   1.409       .  A
C2646      H2651   1.083       .  S
C2647      C2648   1.411       .  A
C2653      C2654   1.402       .  A
C2653      C2658   1.412       .  A
C2654      C2655   1.423       .  A
C2655      C2656   1.416       .  A
C2655      F2662   1.358       .  S
C2656      C2657   1.403       .  A
C2656      H2661   1.083       .  S
C2657      C2658   1.419       .  A
C2663      C2664   1.414       .  A
C2663      C2668   1.394       .  A
C2663      H2670   1.074       .  S
C2664      C2665   1.415       .  A
C2665      C2666   1.402       .  A
C2665      F2672   1.358       .  S
C2666      C2667   1.404       .  A
C2666      H2671   1.083       .  S
C2667      C2668   1.402       .  A
C2668      F2669   1.358       .  S
C2673      C2674   1.400       .  A
C2673      C2678   1.404       .  A
C2673      H2680   1.083       .  S
C2674      C2675   1.410       .  A
C2675      C2676   1.405       .  A
C2675      F2682   1.358       .  S
C2676      C2677   1.405       .  A
C2676      H2681   1.084       .  S
C2677      C2678   1.414       .  A
C2678      F2679   1.357       .  S
C2683      C2684   1.411       .  A
C2683      C2688   1.396       .  A
C2683      H2690   1.084       .  S
C2684      C2685   1.420       .  A
C2685      C2686   1.411       .  A
C2685      F2692   1.352       .  S
C2686      C2687   1.407       .  A
C2686      H2691   1.083       .  S
C2687      C2688   1.409       .  A
C2688      F2689   1.358       .  S
C2693      C2694   1.420   1_655  A
C2693      C2698   1.408       .  A
C2693      H2700   1.083       .  S
C2695      C2696   1.417       .  A
C2695      F2702   1.356       .  S
C2696      H2701   1.083       .  S
C2697      C2698   1.403   1_455  A
C2698      F2699   1.357       .  S
C2703      C2708   1.390       .  A
C2703      H2710   1.084       .  S
C2704      C2705   1.416       .  A
C2705      C2706   1.395       .  A
C2705      F2712   1.353       .  S
C2706      C2707   1.400       .  A
C2706      H2711   1.084       .  S
C2708      F2709   1.358       .  S
