geometry optimzed in LAMMPS
_audit_creation_date              2020-11-30 
_audit_creation_method            'lammps2cif' 
_symmetry_space_group_name_H-M    'P1' 
_symmetry_Int_Tables_number       1 
_symmetry_cell_setting            triclinic 
loop_ 
_symmetry_equiv_pos_as_xyz 
  x,y,z 
_cell_length_a                    25.752562556585048 
_cell_length_b                    63.89165185757103 
_cell_length_c                    37.056247087597214 
_cell_angle_alpha                 90.08444864322257 
_cell_angle_beta                  89.28654643435077 
_cell_angle_gamma                 89.98445527320705 
loop_ 
_atom_site_label 
_atom_site_type_symbol 
_atom_site_fract_x 
_atom_site_fract_y 
_atom_site_fract_z 
_atom_site_charge 
N1          N  0.23730275  0.37402775  0.25029770    -0.26960
N2          N  0.19229844  0.36423605  0.25184700    -0.34820
C3          C  0.15386200  0.37832979  0.25446493     0.01380
C4          C  0.17558303  0.39813285  0.25441460     0.07410
C5          C  0.22879121  0.39483561  0.25159468    -0.05690
H6          H  0.11307288  0.37440364  0.25623258     0.08070
H7          H  0.25904239  0.40657231  0.25151840     0.09270
Cu8        Cu  0.18630512  0.33215441  0.25146792     0.44170
Cu9        Cu  0.30600286  0.35716223  0.24846009     0.41990
Cu10       Cu  0.29886805  0.29841237  0.24964720     0.43880
N11         N  0.18266474  0.30002715  0.25328712    -0.34340
N12         N  0.22280952  0.28714982  0.25226481    -0.28600
C13         C  0.20498835  0.26728074  0.25436526    -0.04700
C14         C  0.15112575  0.26796057  0.25728371     0.07520
C15         C  0.13875752  0.28897292  0.25634604     0.01310
H16         H  0.22938329  0.25350102  0.25459629     0.08960
H17         H  0.10037972  0.29583800  0.25758102     0.08040
N18         N  0.36716693  0.31607723  0.24889349    -0.35790
N19         N  0.36876792  0.33681606  0.24859001    -0.27970
C20         C  0.41845223  0.34307446  0.24871879    -0.03210
C21         C  0.44991788  0.32560534  0.24907066     0.05400
C22         C  0.41626430  0.30870661  0.24914890     0.03490
H23         H  0.43063533  0.35927699  0.24863941     0.08600
H24         H  0.42659840  0.29229333  0.24957823     0.07430
N25         N  0.23746277  0.63005491  0.24936954    -0.26960
N26         N  0.19249555  0.63985297  0.24808622    -0.34820
C27         C  0.15385926  0.62584218  0.25023597     0.01380
C28         C  0.17541991  0.60607290  0.25284449     0.07410
C29         C  0.22875874  0.60931002  0.25207667    -0.05690
H30         H  0.11304482  0.62981143  0.24999550     0.08070
H31         H  0.25888501  0.59760950  0.25437703     0.09270
Cu32       Cu  0.18674812  0.67188636  0.24541928     0.44170
Cu33       Cu  0.30613579  0.64692480  0.24909698     0.41990
Cu34       Cu  0.29883180  0.70573740  0.24878356     0.43880
N35         N  0.18267770  0.70395813  0.24851972    -0.34340
N36         N  0.22263817  0.71688623  0.24990716    -0.28600
C37         C  0.20441000  0.73663930  0.25345892    -0.04700
C38         C  0.15049714  0.73578571  0.25497173     0.07520
C39         C  0.13848642  0.71484916  0.25133493     0.01310
H40         H  0.22846485  0.75044299  0.25575831     0.08960
H41         H  0.10023312  0.70788980  0.25079926     0.08040
N42         N  0.36710517  0.68806342  0.24859535    -0.35790
N43         N  0.36875789  0.66732381  0.24885549    -0.27970
C44         C  0.41845709  0.66108157  0.24885426    -0.03210
C45         C  0.44986954  0.67855983  0.24853703     0.05400
C46         C  0.41618221  0.69544889  0.24837207     0.03490
H47         H  0.43068470  0.64488254  0.24903201     0.08600
H48         H  0.42647933  0.71186632  0.24818003     0.07430
N49         N  0.71866513  0.62956582  0.25088109    -0.26960
N50         N  0.76366569  0.63935207  0.25168715    -0.34820
C51         C  0.80227539  0.62531936  0.24964464     0.01380
C52         C  0.78063657  0.60555632  0.24769048     0.07410
C53         C  0.72731593  0.60878940  0.24870898    -0.05690
H54         H  0.84311216  0.62926028  0.24939038     0.08070
H55         H  0.69720849  0.59705567  0.24679621     0.09270
Cu56       Cu  0.76943110  0.67137133  0.25328156     0.44170
Cu57       Cu  0.65019709  0.64656620  0.25038639     0.41990
Cu58       Cu  0.65830924  0.70542906  0.24626508     0.43880
N59         N  0.77428192  0.70329817  0.24836847    -0.34340
N60         N  0.73475503  0.71632347  0.24529767    -0.28600
C61         C  0.75367607  0.73590228  0.24083384    -0.04700
C62         C  0.80763369  0.73481823  0.24055642     0.07520
C63         C  0.81883743  0.71393241  0.24588856     0.01310
H64         H  0.73008358  0.74974579  0.23733789     0.08940
H65         H  0.85675010  0.70680720  0.24804847     0.08040
N66         N  0.58985143  0.68785762  0.24769891    -0.35790
N67         N  0.58794972  0.66713361  0.24905869    -0.27970
C68         C  0.53818252  0.66099023  0.24952673    -0.03210
C69         C  0.50697102  0.67851166  0.24847601     0.05400
C70         C  0.54085080  0.69532714  0.24733862     0.03490
H71         H  0.52577299  0.64482674  0.25060214     0.08600
H72         H  0.53073306  0.71175094  0.24627150     0.07430
O73         O  0.93063415  0.47954514  0.21681119    -0.72610
O74         O  0.03932834  0.52421194  0.22503055    -0.73590
O75         O  0.03939401  0.47993280  0.22516997    -0.62210
O76         O  0.93057335  0.52454333  0.21665878    -0.70620
O77         O  0.91811196  0.52425153  0.27609088    -0.70180
O78         O  0.02702059  0.47969494  0.28460554    -0.61430
O79         O  0.02681474  0.52474452  0.28446327    -0.73940
O80         O  0.91826734  0.48003423  0.27624849    -0.72720
Cu81       Cu  0.98525000  0.50205318  0.21882215     1.04560
Cu82       Cu  0.97232513  0.50218363  0.28244869     1.04330
C83         C  0.90812045  0.47248112  0.24522711     0.93590
C84         C  0.04925945  0.53182845  0.25604084     0.92720
C85         C  0.04946226  0.47247268  0.25623771     0.84870
C86         C  0.90799286  0.53169520  0.24502360     0.91140
N87         N  0.71877948  0.37462598  0.25146724    -0.26960
N88         N  0.76378985  0.36481637  0.25143160    -0.34820
C89         C  0.80237249  0.37883571  0.24917307     0.01380
C90         C  0.78073927  0.39862388  0.24792553     0.07410
C91         C  0.72742400  0.39540986  0.24960367    -0.05690
H92         H  0.84319188  0.37486467  0.24832563     0.08070
H93         H  0.69727916  0.40716646  0.24836438     0.09270
Cu94       Cu  0.76963067  0.33280135  0.25237534     0.44170
Cu95       Cu  0.65024862  0.35763932  0.25166461     0.41990
Cu96       Cu  0.65843100  0.29873431  0.24743719     0.43880
N97         N  0.77446324  0.30086321  0.24769116    -0.34340
N98         N  0.73487734  0.28780653  0.24551193    -0.28600
C99         C  0.75373351  0.26818647  0.24130323    -0.04700
C100        C  0.80770250  0.26927036  0.24025891     0.07520
C101        C  0.81898246  0.29021505  0.24487463     0.01310
H102        H  0.73006915  0.25429819  0.23861631     0.08960
H103        H  0.85691852  0.29736684  0.24649613     0.08040
N104        N  0.58994286  0.31632547  0.24908627    -0.35790
N105        N  0.58799661  0.33705334  0.25045079    -0.27970
C106        C  0.53820632  0.34319150  0.25071649    -0.03210
C107        C  0.50702746  0.32566520  0.24952085     0.05400
C108        C  0.54095734  0.30885298  0.24854056     0.03490
H109        H  0.52575415  0.35935769  0.25164186     0.08600
H110        H  0.53088389  0.29242951  0.24730107     0.07430
C111        C  0.97791377  0.20928065  0.24983322    -0.02160
C112        C  0.97800253  0.79469097  0.24928259    -0.02160
N113        N  0.98094299  0.13628102  0.07330208    -0.26960
N114        N  0.97901983  0.15408933  0.05529575    -0.34820
C115        C  0.97813973  0.17009590  0.07884012     0.01380
C116        C  0.97957611  0.16202691  0.11350228     0.07410
C117        C  0.98100140  0.14049373  0.10889624    -0.05690
H118        H  0.97575233  0.18637692  0.07110194     0.08070
H119        H  0.98272423  0.12874441  0.12983175     0.09270
Cu120      Cu  0.97747715  0.15596239  0.49957151     0.44170
Cu121      Cu  0.98380328  0.10721563  0.04825429     0.41990
Cu122      Cu  0.97783259  0.10719174  0.45004591     0.43880
N123        N  0.97759100  0.15418134  0.44380573    -0.34340
N124        N  0.97888133  0.13639750  0.42554617    -0.28600
C125        C  0.97984179  0.14070105  0.39000512    -0.04700
C126        C  0.97834822  0.16222352  0.38575309     0.07520
C127        C  0.97705218  0.17024910  0.42045775     0.01310
H128        H  0.98051085  0.12901892  0.36883801     0.08960
H129        H  0.97645290  0.18657052  0.42827908     0.08040
N130        N  0.97894527  0.08024244  0.48129323    -0.35790
N131        N  0.98319300  0.08028836  0.01683324    -0.27970
C132        C  0.98513188  0.06040278  0.02859278    -0.03210
C133        C  0.98135225  0.04720519  0.49910835     0.05400
C134        C  0.97714026  0.06030925  0.46959011     0.03490
H135        H  0.98795102  0.05590424  0.05662578     0.08600
H136        H  0.97385338  0.05570372  0.44160758     0.07430
N137        N  0.97975037  0.86786783  0.42537828    -0.26960
N138        N  0.97866726  0.84998974  0.44325567    -0.34820
C139        C  0.97895557  0.83405933  0.41953686     0.01380
C140        C  0.98083476  0.84226884  0.38498162     0.07410
C141        C  0.98131635  0.86378213  0.38974308    -0.05690
H142        H  0.97816569  0.81768998  0.42696648     0.08070
H143        H  0.98139831  0.87562120  0.36891606     0.09270
Cu144      Cu  0.97748606  0.84800891  0.49904439     0.44170
Cu145      Cu  0.97749458  0.89689326  0.45053115     0.41990
Cu146      Cu  0.98388042  0.89679167  0.04858325     0.43880
N147        N  0.97878880  0.84982294  0.05484030    -0.34340
N148        N  0.98093168  0.86759138  0.07305874    -0.28600
C149        C  0.98088624  0.86329856  0.10859717    -0.04700
C150        C  0.97912816  0.84176313  0.11297999     0.07520
C151        C  0.97764264  0.83376943  0.07822136     0.01310
H152        H  0.98272285  0.87500636  0.12966409     0.08960
H153        H  0.97506409  0.81750813  0.07030182     0.08040
N154        N  0.98191448  0.92380071  0.01751204    -0.35790
N155        N  0.97743759  0.92379054  0.48199173    -0.27970
C156        C  0.97474149  0.94368145  0.47033273    -0.03210
C157        C  0.97826088  0.95685144  0.49987097     0.05400
C158        C  0.98310392  0.94372214  0.02930927     0.03490
H159        H  0.97168184  0.94820701  0.44232623     0.08600
H160        H  0.98647434  0.94829990  0.05729895     0.07430
C161        C  0.94591149  0.01316872  0.47739986    -0.20970
C162        C  0.98089154  0.02409315  0.49923323    -0.09020
C163        C  0.01487866  0.01277676  0.02130002     0.29840
C164        C  0.01341601  0.99089326  0.02167760    -0.20980
C165        C  0.97846805  0.97996492  0.49983256    -0.09030
C166        C  0.94444497  0.99127907  0.47777960     0.29850
F167        F  0.90861633  0.98120754  0.45756787    -0.19550
H168        H  0.91900866  0.02162093  0.46054299     0.18210
H169        H  0.04035610  0.98244792  0.03851364     0.18220
F170        F  0.05073842  0.02284148  0.04149258    -0.19540
C171        C  0.95260594  0.81156859  0.34874122    -0.20970
C172        C  0.97991040  0.83046656  0.35060953    -0.09020
C173        C  0.00698320  0.83751535  0.31987262     0.29840
C174        C  0.00573063  0.82597651  0.28779265    -0.20980
C175        C  0.97498809  0.80773811  0.28459577    -0.09030
C176        C  0.95059856  0.80016734  0.31662100     0.29850
F177        F  0.92566290  0.78149585  0.31779805    -0.19550
H178        H  0.93251684  0.80552006  0.37234080     0.18210
H179        H  0.02888707  0.83145665  0.26518050     0.18220
F180        F  0.03650875  0.85508441  0.32115379    -0.19540
C181        C  0.99981566  0.79895069  0.18208434    -0.20970
C182        C  0.98017369  0.80804706  0.21429588    -0.09020
C183        C  0.95575894  0.82787649  0.21130670     0.29840
C184        C  0.95659404  0.83879410  0.17858186    -0.20980
C185        C  0.97891522  0.82996227  0.14739523    -0.09030
C186        C  0.00008841  0.80976427  0.14941833     0.29850
F187        F  0.02231867  0.80050518  0.12009612    -0.19550
H188        H  0.01599848  0.78333901  0.18210991     0.18210
H189        H  0.93815789  0.85401095  0.17741667     0.18220
F190        F  0.92921431  0.83662328  0.23932400    -0.19540
C191        C  0.94690592  0.20317160  0.31561642    -0.20970
C192        C  0.97498573  0.19607971  0.28490443    -0.09020
C193        C  0.00772224  0.17844533  0.28950455     0.29840
C194        C  0.00745428  0.16724470  0.32190739    -0.20980
C195        C  0.97760673  0.17404144  0.35151300    -0.09030
C196        C  0.94790248  0.19231986  0.34825290     0.29850
F197        F  0.91895524  0.19960376  0.37643610    -0.19550
H198        H  0.92416950  0.21735453  0.31492577     0.18210
H199        H  0.03198425  0.15354909  0.32421784     0.18220
F200        F  0.04039322  0.17196963  0.26273812    -0.19540
C201        C  0.00056025  0.20484067  0.18268846    -0.20970
C202        C  0.98047819  0.19588557  0.21483039    -0.09020
C203        C  0.95595397  0.17608012  0.21181450     0.29840
C204        C  0.95681930  0.16509382  0.17909237    -0.20980
C205        C  0.97955096  0.17380113  0.14798947    -0.09030
C206        C  0.00117901  0.19391172  0.15009848     0.29850
F207        F  0.02409202  0.20299087  0.12090697    -0.19550
H208        H  0.01659821  0.22046898  0.18262241     0.18210
H209        H  0.93819358  0.14991848  0.17787200     0.18220
F210        F  0.92961277  0.16737607  0.23991654    -0.19540
C211        C  0.83754116  0.23224391  0.25033948    -0.20970
C212        C  0.84678751  0.25235972  0.23658021    -0.09020
C213        C  0.89580858  0.25681315  0.22148798     0.29840
C214        C  0.93638124  0.24262415  0.22472512    -0.20980
C215        C  0.92989841  0.22356282  0.24350085    -0.09030
C216        C  0.87824513  0.21768176  0.25268564     0.29850
F217        F  0.86707815  0.19826175  0.26528129    -0.19550
H218        H  0.79938057  0.22803564  0.26049701     0.18210
H219        H  0.97371421  0.24711250  0.21359908     0.18220
F220        F  0.90502055  0.27506722  0.20383959    -0.19540
C221        C  0.85660862  0.41874648  0.22459412    -0.20970
C222        C  0.80975794  0.41848958  0.24442127    -0.09020
C223        C  0.79342655  0.43680502  0.26238548     0.29840
C224        C  0.82499728  0.45466012  0.26190312    -0.20980
C225        C  0.87225738  0.45466348  0.24261256    -0.09030
C226        C  0.88740903  0.43669210  0.22340479     0.29850
F227        F  0.93360698  0.43604599  0.20537650    -0.19550
H228        H  0.86988371  0.40488380  0.21037463     0.18210
H229        H  0.81298503  0.46839237  0.27703007     0.18220
F230        F  0.74860254  0.43711312  0.28201337    -0.19540
C231        C  0.83762287  0.77189142  0.25000894    -0.20970
C232        C  0.84675588  0.75166566  0.23656507    -0.09020
C233        C  0.89574688  0.74702966  0.22157861     0.29840
C234        C  0.93633318  0.76122846  0.22443906    -0.20980
C235        C  0.93001827  0.78039738  0.24301603    -0.09030
C236        C  0.87846874  0.78639974  0.25224047     0.29850
F237        F  0.86777257  0.80577422  0.26533431    -0.19550
H238        H  0.79952978  0.77618369  0.26021772     0.18210
H239        H  0.97355720  0.75665748  0.21319607     0.18220
F240        F  0.90492407  0.72857645  0.20443939    -0.19540
C241        C  0.85663806  0.58543339  0.22445883    -0.20970
C242        C  0.80964847  0.58569101  0.24411707    -0.09020
C243        C  0.79315051  0.56737654  0.26189428     0.29840
C244        C  0.82471016  0.54951188  0.26142693    -0.20980
C245        C  0.87211166  0.54950099  0.24230739    -0.09030
C246        C  0.88741504  0.56747080  0.22325087     0.29850
F247        F  0.93373382  0.56809913  0.20537801    -0.19550
H248        H  0.87002433  0.59930659  0.21040730     0.18210
H249        H  0.81259170  0.53578507  0.27644022     0.18220
F250        F  0.74817802  0.56708883  0.28135688    -0.19540
C251        C  0.11897057  0.77229089  0.24251589    -0.20970
C252        C  0.11203802  0.75282746  0.25934211    -0.09020
C253        C  0.06543872  0.74895426  0.27813440     0.29840
C254        C  0.02451128  0.76306780  0.27630651    -0.20980
C255        C  0.02783854  0.78126529  0.25482473    -0.09030
C256        C  0.07773119  0.78666003  0.24095162     0.29850
F257        F  0.08686659  0.80553888  0.22542678    -0.19550
H258        H  0.15551549  0.77603323  0.22931689     0.18210
H259        H  0.98876928  0.75886995  0.28992721     0.18220
F260        F  0.05875001  0.73118721  0.29770637    -0.19540
C261        C  0.09778674  0.58627473  0.27424175    -0.20970
C262        C  0.14633334  0.58620097  0.25649902    -0.09020
C263        C  0.16454074  0.56746425  0.24078679     0.29840
C264        C  0.13333486  0.54949970  0.24139275    -0.20980
C265        C  0.08451236  0.54982681  0.25861657    -0.09030
C266        C  0.06728664  0.56824742  0.27555211     0.29850
F267        F  0.01953335  0.56917163  0.29142771    -0.19550
H268        H  0.08298673  0.60043212  0.28675554     0.18210
H269        H  0.14689798  0.53540928  0.22797760     0.18220
F270        F  0.21103717  0.56676824  0.22320707    -0.19540
C271        C  0.06668717  0.25462458  0.27997085    -0.20970
C272        C  0.11272340  0.25081135  0.26059906    -0.09020
C273        C  0.11844629  0.23166448  0.24233859     0.29840
C274        C  0.07645613  0.21770496  0.24047966    -0.20980
C275        C  0.02741251  0.22286128  0.25579476    -0.09030
C276        C  0.02508799  0.24080423  0.27832208     0.29850
F277        F  0.98127990  0.24600878  0.29692546    -0.19550
H278        H  0.06209422  0.26882933  0.29569669     0.18210
H279        H  0.08206825  0.20323145  0.22578715     0.18220
F280        F  0.16325615  0.22697274  0.22447094    -0.19540
C281        C  0.10018514  0.41870881  0.27758128    -0.20970
C282        C  0.14680895  0.41811633  0.25750540    -0.09020
C283        C  0.16323835  0.43623561  0.23906078     0.29840
C284        C  0.13203509  0.45420811  0.23939090    -0.20980
C285        C  0.08502618  0.45454431  0.25896799    -0.09030
C286        C  0.06974098  0.43676967  0.27857740     0.29850
F287        F  0.02372579  0.43641732  0.29685383    -0.19550
H288        H  0.08681122  0.40502938  0.29218577     0.18210
H289        H  0.14414283  0.46777112  0.22393469     0.18220
F290        F  0.20781753  0.43625594  0.21915921    -0.19540
N291        N  0.23730270  0.37402775  0.75029741    -0.26960
N292        N  0.19229841  0.36423605  0.75184701    -0.34820
C293        C  0.15386199  0.37832980  0.75446507     0.01380
C294        C  0.17558303  0.39813286  0.75441452     0.07410
C295        C  0.22879118  0.39483561  0.75159433    -0.05690
H296        H  0.11307289  0.37440365  0.75623295     0.08070
H297        H  0.25904237  0.40657231  0.75151783     0.09270
Cu298      Cu  0.18630508  0.33215442  0.75146807     0.44170
Cu299      Cu  0.30600281  0.35716222  0.74845950     0.41990
Cu300      Cu  0.29886801  0.29841238  0.74964680     0.43880
N301        N  0.18266472  0.30002715  0.75328722    -0.34340
N302        N  0.22280950  0.28714982  0.75226469    -0.28600
C303        C  0.20498835  0.26728074  0.75436511    -0.04700
C304        C  0.15112577  0.26796056  0.75728376     0.07520
C305        C  0.13875753  0.28897291  0.75634624     0.01310
H306        H  0.22938330  0.25350102  0.75459595     0.08960
H307        H  0.10037973  0.29583798  0.75758138     0.08040
N308        N  0.36716689  0.31607723  0.74889291    -0.35790
N309        N  0.36876788  0.33681606  0.74858936    -0.27970
C310        C  0.41845218  0.34307447  0.74871809    -0.03210
C311        C  0.44991784  0.32560535  0.74907003     0.05400
C312        C  0.41626427  0.30870661  0.74914834     0.03490
H313        H  0.43063528  0.35927699  0.74863869     0.08600
H314        H  0.42659837  0.29229333  0.74957776     0.07430
N315        N  0.23746279  0.63005491  0.74936956    -0.26960
N316        N  0.19249556  0.63985296  0.74808622    -0.34820
C317        C  0.15385927  0.62584218  0.75023596     0.01380
C318        C  0.17541992  0.60607290  0.75284449     0.07410
C319        C  0.22875875  0.60931002  0.75207669    -0.05690
H320        H  0.11304483  0.62981143  0.74999548     0.08070
H321        H  0.25888502  0.59760950  0.75437705     0.09270
Cu322      Cu  0.18674814  0.67188636  0.74541928     0.44170
Cu323      Cu  0.30613580  0.64692479  0.74909701     0.41990
Cu324      Cu  0.29883180  0.70573740  0.74878360     0.43880
N325        N  0.18267770  0.70395813  0.74851973    -0.34340
N326        N  0.22263817  0.71688623  0.74990719    -0.28600
C327        C  0.20441000  0.73663930  0.75345895    -0.04700
C328        C  0.15049714  0.73578571  0.75497174     0.07520
C329        C  0.13848642  0.71484915  0.75133494     0.01310
H330        H  0.22846484  0.75044299  0.75575835     0.08960
H331        H  0.10023313  0.70788979  0.75079925     0.08040
N332        N  0.36710517  0.68806342  0.74859539    -0.35790
N333        N  0.36875789  0.66732381  0.74885553    -0.27970
C334        C  0.41845710  0.66108157  0.74885429    -0.03210
C335        C  0.44986954  0.67855984  0.74853705     0.05400
C336        C  0.41618221  0.69544889  0.74837210     0.03490
H337        H  0.43068472  0.64488254  0.74903203     0.08600
H338        H  0.42647933  0.71186632  0.74818006     0.07430
N339        N  0.71866514  0.62956584  0.75088107    -0.26960
N340        N  0.76366569  0.63935209  0.75168714    -0.34820
C341        C  0.80227540  0.62531937  0.74964464     0.01380
C342        C  0.78063657  0.60555633  0.74769048     0.07410
C343        C  0.72731594  0.60878942  0.74870898    -0.05690
H344        H  0.84311216  0.62926029  0.74939038     0.08070
H345        H  0.69720849  0.59705568  0.74679620     0.09270
Cu346      Cu  0.76943110  0.67137134  0.75328154     0.44170
Cu347      Cu  0.65019710  0.64656622  0.75038637     0.41990
Cu348      Cu  0.65830924  0.70542907  0.74626507     0.43880
N349        N  0.77428192  0.70329818  0.74836845    -0.34340
N350        N  0.73475503  0.71632349  0.74529765    -0.28600
C351        C  0.75367607  0.73590229  0.74083382    -0.04700
C352        C  0.80763368  0.73481824  0.74055640     0.07520
C353        C  0.81883742  0.71393243  0.74588853     0.01310
H354        H  0.73008357  0.74974581  0.73733788     0.08940
H355        H  0.85675010  0.70680721  0.74804844     0.08040
N356        N  0.58985143  0.68785763  0.74769890    -0.35790
N357        N  0.58794973  0.66713362  0.74905869    -0.27970
C358        C  0.53818253  0.66099024  0.74952673    -0.03210
C359        C  0.50697102  0.67851166  0.74847603     0.05400
C360        C  0.54085080  0.69532715  0.74733862     0.03490
H361        H  0.52577300  0.64482675  0.75060214     0.08600
H362        H  0.53073305  0.71175095  0.74627152     0.07430
O363        O  0.93063411  0.47954514  0.71681122    -0.72610
O364        O  0.03932831  0.52421195  0.72503055    -0.73590
O365        O  0.03939398  0.47993280  0.72516997    -0.62210
O366        O  0.93057332  0.52454334  0.71665880    -0.70620
O367        O  0.91811195  0.52425153  0.77609091    -0.70180
O368        O  0.02702059  0.47969494  0.78460554    -0.61430
O369        O  0.02681474  0.52474453  0.78446327    -0.73940
O370        O  0.91826733  0.48003424  0.77624852    -0.72720
Cu371      Cu  0.98524996  0.50205318  0.71882216     1.04560
Cu372      Cu  0.97232512  0.50218363  0.78244871     1.04330
C373        C  0.90812042  0.47248112  0.74522715     0.93590
C374        C  0.04925943  0.53182845  0.75604083     0.92720
C375        C  0.04946225  0.47247268  0.75623770     0.84870
C376        C  0.90799285  0.53169520  0.74502362     0.91140
N377        N  0.71877942  0.37462600  0.75146722    -0.26960
N378        N  0.76378978  0.36481639  0.75143171    -0.34820
C379        C  0.80237243  0.37883572  0.74917324     0.01380
C380        C  0.78073922  0.39862389  0.74792562     0.07410
C381        C  0.72742395  0.39540988  0.74960364    -0.05690
H382        H  0.84319182  0.37486469  0.74832589     0.08070
H383        H  0.69727911  0.40716648  0.74836424     0.09270
Cu384      Cu  0.76963060  0.33280137  0.75237548     0.44170
Cu385      Cu  0.65024855  0.35763934  0.75166440     0.41990
Cu386      Cu  0.65843097  0.29873433  0.74743696     0.43880
N387        N  0.77446320  0.30086323  0.74769123    -0.34340
N388        N  0.73487732  0.28780655  0.74551186    -0.28600
C389        C  0.75373352  0.26818650  0.74130313    -0.04700
C390        C  0.80770251  0.26927039  0.74025893     0.07520
C391        C  0.81898243  0.29021508  0.74487477     0.01310
H392        H  0.73006918  0.25429822  0.73861609     0.08960
H393        H  0.85691849  0.29736687  0.74649637     0.08040
N394        N  0.58994282  0.31632548  0.74908589    -0.35790
N395        N  0.58799656  0.33705335  0.75045041    -0.27970
C396        C  0.53820627  0.34319151  0.75071600    -0.03210
C397        C  0.50702742  0.32566521  0.74952030     0.05400
C398        C  0.54095730  0.30885299  0.74854008     0.03490
H399        H  0.52575409  0.35935770  0.75164136     0.08600
H400        H  0.53088387  0.29242953  0.74730058     0.07430
C401        C  0.97791375  0.20928066  0.74983323    -0.02160
C402        C  0.97800254  0.79469097  0.74928258    -0.02160
N403        N  0.98094302  0.13628103  0.57330208    -0.26960
N404        N  0.97901985  0.15408934  0.55529576    -0.34820
C405        C  0.97813972  0.17009590  0.57884012     0.01380
C406        C  0.97957610  0.16202692  0.61350229     0.07410
C407        C  0.98100141  0.14049374  0.60889624    -0.05690
H408        H  0.97575230  0.18637693  0.57110193     0.08070
H409        H  0.98272426  0.12874442  0.62983176     0.09270
Cu410      Cu  0.97747710  0.15596239  0.99957151     0.44170
Cu411      Cu  0.98380332  0.10721564  0.54825431     0.41990
Cu412      Cu  0.97783257  0.10719173  0.95004590     0.43880
N413        N  0.97759093  0.15418134  0.94380572    -0.34340
N414        N  0.97888129  0.13639749  0.92554616    -0.28600
C415        C  0.97984174  0.14070105  0.89000511    -0.04700
C416        C  0.97834814  0.16222352  0.88575308     0.07520
C417        C  0.97705208  0.17024910  0.92045775     0.01310
H418        H  0.98051082  0.12901892  0.86883800     0.08960
H419        H  0.97645278  0.18657052  0.92827907     0.08040
N420        N  0.97894525  0.08024244  0.98129322    -0.35790
N421        N  0.98319302  0.08028837  0.51683326    -0.27970
C422        C  0.98513189  0.06040279  0.52859280    -0.03210
C423        C  0.98135224  0.04720519  0.99910833     0.05400
C424        C  0.97714024  0.06030924  0.96959009     0.03490
H425        H  0.98795102  0.05590425  0.55662580     0.08600
H426        H  0.97385336  0.05570371  0.94160756     0.07430
N427        N  0.97975037  0.86786783  0.92537828    -0.26960
N428        N  0.97866726  0.84998973  0.94325568    -0.34820
C429        C  0.97895558  0.83405933  0.91953686     0.01380
C430        C  0.98083478  0.84226884  0.88498163     0.07410
C431        C  0.98131637  0.86378212  0.88974308    -0.05690
H432        H  0.97816569  0.81768998  0.92696648     0.08070
H433        H  0.98139833  0.87562120  0.86891607     0.09270
Cu434      Cu  0.97748603  0.84800891  0.99904439     0.44170
Cu435      Cu  0.97749458  0.89689325  0.95053115     0.41990
Cu436      Cu  0.98388044  0.89679167  0.54858325     0.43880
N437        N  0.97878884  0.84982294  0.55484030    -0.34340
N438        N  0.98093172  0.86759138  0.57305874    -0.28600
C439        C  0.98088629  0.86329857  0.60859717    -0.04700
C440        C  0.97912821  0.84176313  0.61297998     0.07520
C441        C  0.97764270  0.83376943  0.57822136     0.01310
H442        H  0.98272289  0.87500637  0.62966408     0.08960
H443        H  0.97506415  0.81750813  0.57030182     0.08040
N444        N  0.98191448  0.92380071  0.51751204    -0.35790
N445        N  0.97743758  0.92379053  0.98199173    -0.27970
C446        C  0.97474148  0.94368144  0.97033273    -0.03210
C447        C  0.97826087  0.95685144  0.99987097     0.05400
C448        C  0.98310392  0.94372214  0.52930927     0.03490
H449        H  0.97168182  0.94820701  0.94232623     0.08600
H450        H  0.98647433  0.94829990  0.55729895     0.07430
C451        C  0.94591139  0.01316872  0.97739991    -0.20970
C452        C  0.98089153  0.02409314  0.99923321    -0.09020
C453        C  0.01487858  0.01277676  0.52130010     0.29840
C454        C  0.01341593  0.99089326  0.52167768    -0.20980
C455        C  0.97846805  0.97996492  0.99983256    -0.09030
C456        C  0.94444488  0.99127906  0.97777966     0.29850
F457        F  0.90861616  0.98120753  0.95756800    -0.19550
H458        H  0.91900850  0.02162093  0.96054310     0.18210
H459        H  0.04035595  0.98244792  0.53851376     0.18220
F460        F  0.05073826  0.02284147  0.54149274    -0.19540
C461        C  0.95260597  0.81156859  0.84874122    -0.20970
C462        C  0.97991042  0.83046656  0.85060953    -0.09020
C463        C  0.00698321  0.83751535  0.81987262     0.29840
C464        C  0.00573063  0.82597652  0.78779264    -0.20980
C465        C  0.97498810  0.80773812  0.78459577    -0.09030
C466        C  0.95059859  0.80016734  0.81662100     0.29850
F467        F  0.92566293  0.78149585  0.81779805    -0.19550
H468        H  0.93251687  0.80552005  0.87234080     0.18210
H469        H  0.02888707  0.83145666  0.76518049     0.18220
F470        F  0.03650875  0.85508442  0.82115379    -0.19540
C471        C  0.99981572  0.79895069  0.68208434    -0.20970
C472        C  0.98017372  0.80804706  0.71429587    -0.09020
C473        C  0.95575896  0.82787649  0.71130669     0.29840
C474        C  0.95659407  0.83879410  0.67858185    -0.20980
C475        C  0.97891527  0.82996227  0.64739523    -0.09030
C476        C  0.00008848  0.80976428  0.64941833     0.29850
F477        F  0.02231875  0.80050518  0.62009612    -0.19550
H478        H  0.01599855  0.78333901  0.68210992     0.18210
H479        H  0.93815791  0.85401095  0.67741666     0.18220
F480        F  0.92921431  0.83662328  0.73932398    -0.19540
C481        C  0.94690573  0.20317157  0.81561639    -0.20970
C482        C  0.97498568  0.19607972  0.78490444    -0.09020
C483        C  0.00772226  0.17844537  0.78950458     0.29840
C484        C  0.00745429  0.16724473  0.82190741    -0.20980
C485        C  0.97760664  0.17404144  0.85151300    -0.09030
C486        C  0.94790230  0.19231983  0.84825287     0.29850
F487        F  0.91895497  0.19960370  0.87643606    -0.19550
H488        H  0.92416924  0.21735449  0.81492573     0.18210
H489        H  0.03198432  0.15354914  0.82421789     0.18220
F490        F  0.04039332  0.17196969  0.76273817    -0.19540
C491        C  0.00056007  0.20484071  0.68268845    -0.20970
C492        C  0.98047813  0.19588559  0.71483040    -0.09020
C493        C  0.95595403  0.17608011  0.71181452     0.29840
C494        C  0.95681936  0.16509381  0.67909239    -0.20980
C495        C  0.97955092  0.17380114  0.64798948    -0.09030
C496        C  0.00117886  0.19391176  0.65009847     0.29850
F497        F  0.02409179  0.20299092  0.62090695    -0.19550
H498        H  0.01659794  0.22046903  0.68262239     0.18210
H499        H  0.93819372  0.14991845  0.67787204     0.18220
F500        F  0.92961291  0.16737604  0.73991658    -0.19540
C501        C  0.83754116  0.23224393  0.75033938    -0.20970
C502        C  0.84678755  0.25235976  0.73658023    -0.09020
C503        C  0.89580867  0.25681322  0.72148812     0.29840
C504        C  0.93638133  0.24262422  0.72472526    -0.20980
C505        C  0.92989844  0.22356286  0.74350087    -0.09030
C506        C  0.87824513  0.21768178  0.75268554     0.29850
F507        F  0.86707812  0.19826174  0.76528108    -0.19550
H508        H  0.79938053  0.22803564  0.76049682     0.18210
H509        H  0.97371433  0.24711259  0.71359930     0.18220
F510        F  0.90502070  0.27506732  0.70383983    -0.19540
C511        C  0.85660861  0.41874648  0.72459423    -0.20970
C512        C  0.80975790  0.41848959  0.74442134    -0.09020
C513        C  0.79342650  0.43680504  0.76238552     0.29840
C514        C  0.82499723  0.45466014  0.76190314    -0.20980
C515        C  0.87225735  0.45466349  0.74261261    -0.09030
C516        C  0.88740902  0.43669209  0.72340488     0.29850
F517        F  0.93360699  0.43604598  0.70537661    -0.19550
H518        H  0.86988371  0.40488379  0.71037477     0.18210
H519        H  0.81298497  0.46839240  0.77703006     0.18220
F520        F  0.74860246  0.43711316  0.78201338    -0.19540
C521        C  0.83762287  0.77189143  0.75000894    -0.20970
C522        C  0.84675588  0.75166568  0.73656505    -0.09020
C523        C  0.89574686  0.74702968  0.72157858     0.29840
C524        C  0.93633317  0.76122848  0.72443903    -0.20980
C525        C  0.93001827  0.78039740  0.74301602    -0.09030
C526        C  0.87846875  0.78639975  0.75224048     0.29850
F527        F  0.86777258  0.80577423  0.76533433    -0.19550
H528        H  0.79952979  0.77618370  0.76021774     0.18210
H529        H  0.97355719  0.75665750  0.71319603     0.18220
F530        F  0.90492405  0.72857647  0.70443934    -0.19540
C531        C  0.85663808  0.58543341  0.72445886    -0.20970
C532        C  0.80964848  0.58569103  0.74411708    -0.09020
C533        C  0.79315050  0.56737655  0.76189428     0.29840
C534        C  0.82471014  0.54951189  0.76142694    -0.20980
C535        C  0.87211165  0.54950099  0.74230742    -0.09030
C536        C  0.88741505  0.56747081  0.72325091     0.29850
F537        F  0.93373384  0.56809914  0.70537806    -0.19550
H538        H  0.87002436  0.59930660  0.71040733     0.18210
H539        H  0.81259166  0.53578508  0.77644023     0.18220
F540        F  0.74817800  0.56708885  0.78135687    -0.19540
C541        C  0.11897057  0.77229089  0.74251592    -0.20970
C542        C  0.11203801  0.75282745  0.75934212    -0.09020
C543        C  0.06543869  0.74895424  0.77813438     0.29840
C544        C  0.02451126  0.76306779  0.77630649    -0.20980
C545        C  0.02783853  0.78126529  0.75482473    -0.09030
C546        C  0.07773121  0.78666003  0.74095165     0.29850
F547        F  0.08686662  0.80553889  0.72542683    -0.19550
H548        H  0.15551551  0.77603323  0.72931694     0.18210
H549        H  0.98876925  0.75886994  0.78992717     0.18220
F550        F  0.05874997  0.73118720  0.79770634    -0.19540
C551        C  0.09778673  0.58627473  0.77424174    -0.20970
C552        C  0.14633334  0.58620097  0.75649902    -0.09020
C553        C  0.16454074  0.56746425  0.74078679     0.29840
C554        C  0.13333485  0.54949970  0.74139274    -0.20980
C555        C  0.08451235  0.54982681  0.75861656    -0.09030
C556        C  0.06728664  0.56824743  0.77555210     0.29850
F557        F  0.01953334  0.56917164  0.79142770    -0.19550
H558        H  0.08298673  0.60043212  0.78675553     0.18210
H559        H  0.14689796  0.53540928  0.72797760     0.18220
F560        F  0.21103716  0.56676824  0.72320707    -0.19540
C561        C  0.06668728  0.25462452  0.77997098    -0.20970
C562        C  0.11272344  0.25081133  0.76059909    -0.09020
C563        C  0.11844627  0.23166449  0.74233850     0.29840
C564        C  0.07645610  0.21770497  0.74047956    -0.20980
C565        C  0.02741254  0.22286127  0.75579478    -0.09030
C566        C  0.02508809  0.24080418  0.77832220     0.29850
F567        F  0.98128005  0.24600869  0.79692566    -0.19550
H568        H  0.06209437  0.26882924  0.79569691     0.18210
H569        H  0.08206818  0.20323149  0.72578696     0.18220
F570        F  0.16325607  0.22697278  0.72447075    -0.19540
C571        C  0.10018533  0.41870886  0.77758140    -0.20970
C572        C  0.14680897  0.41811635  0.75750534    -0.09020
C573        C  0.16323823  0.43623559  0.73906056     0.29840
C574        C  0.13203497  0.45420809  0.73939071    -0.20980
C575        C  0.08502621  0.45454433  0.75896798    -0.09030
C576        C  0.06974117  0.43676972  0.77857754     0.29850
F577        F  0.02372612  0.43641740  0.79685415    -0.19550
H578        H  0.08681152  0.40502945  0.79218601     0.18210
H579        H  0.14414259  0.46777107  0.72393438     0.18220
F580        F  0.20781725  0.43625589  0.71915882    -0.19540
loop_ 
_geom_bond_atom_site_label_1 
_geom_bond_atom_site_label_2 
_geom_bond_distance 
_geom_bond_site_symmetry_2 
_ccdc_geom_bond_type 
N1            N2   1.318       .  A
N1            C5   1.348       .  A
N1           Cu9   2.072       .  S
N2            C3   1.340       .  A
N2           Cu8   2.056       .  S
C3            C4   1.384       .  A
C3            H6   1.081       .  S
C4            C5   1.389       .  A
C4          C282   1.480       .  S
C5            H7   1.081       .  S
Cu8          N11   2.056       .  S
Cu9          N19   2.074       .  S
Cu10         N12   2.088       .  S
Cu10         N18   2.090       .  S
N11          N12   1.321       .  A
N11          C15   1.337       .  A
N12          C13   1.352       .  A
C13          C14   1.391       .  A
C13          H16   1.082       .  S
C14          C15   1.380       .  A
C14         C272   1.480       .  S
C15          H17   1.082       .  S
N18          N19   1.326       .  A
N18          C22   1.349       .  A
N19          C20   1.341       .  A
C20          C21   1.379       .  A
C20          H23   1.082       .  S
C21          C22   1.385       .  A
C21         C107   1.471       .  S
C22          H24   1.082       .  S
N25          N26   1.318       .  A
N25          C29   1.348       .  A
N25         Cu33   2.071       .  S
N26          C27   1.340       .  A
N26         Cu32   2.055       .  S
C27          C28   1.384       .  A
C27          H30   1.081       .  S
C28          C29   1.389       .  A
C28         C262   1.480       .  S
C29          H31   1.081       .  S
Cu32         N35   2.055       .  S
Cu33         N43   2.074       .  S
Cu34         N36   2.087       .  S
Cu34         N42   2.089       .  S
N35          N36   1.321       .  A
N35          C39   1.337       .  A
N36          C37   1.352       .  A
C37          C38   1.390       .  A
C37          H40   1.082       .  S
C38          C39   1.380       .  A
C38         C252   1.479       .  S
C39          H41   1.081       .  S
N42          N43   1.326       .  A
N42          C46   1.349       .  A
N43          C44   1.340       .  A
C44          C45   1.379       .  A
C44          H47   1.082       .  S
C45          C46   1.384       .  A
C45          C69   1.470       .  S
C46          H48   1.082       .  S
N49          N50   1.318       .  A
N49          C53   1.348       .  A
N49         Cu57   2.071       .  S
N50          C51   1.340       .  A
N50         Cu56   2.052       .  S
C51          C52   1.382       .  A
C51          H54   1.081       .  S
C52          C53   1.389       .  A
C52         C242   1.478       .  S
C53          H55   1.082       .  S
Cu56         N59   2.052       .  S
Cu57         N67   2.074       .  S
Cu58         N60   2.088       .  S
Cu58         N66   2.090       .  S
N59          N60   1.321       .  A
N59          C63   1.336       .  A
N60          C61   1.352       .  A
C61          C62   1.391       .  A
C61          H64   1.082       .  S
C62          C63   1.380       .  A
C62         C232   1.481       .  S
C63          H65   1.081       .  S
N66          N67   1.326       .  A
N66          C70   1.349       .  A
N67          C68   1.340       .  A
C68          C69   1.379       .  A
C68          H71   1.082       .  S
C69          C70   1.385       .  A
C70          H72   1.082       .  S
O73         Cu81   2.014       .  S
O73          C83   1.279       .  A
O74         Cu81   2.001   1_455  S
O74          C84   1.276       .  A
O75         Cu81   2.001   1_455  S
O75          C85   1.276       .  A
O76         Cu81   2.014       .  S
O76          C86   1.279       .  A
O77         Cu82   2.000       .  S
O77          C86   1.276       .  A
O78         Cu82   2.014   1_455  S
O78          C85   1.279       .  A
O79         Cu82   2.014   1_455  S
O79          C84   1.279       .  A
O80         Cu82   2.000       .  S
O80          C83   1.276       .  A
Cu81        Cu82   2.377       .  S
C83         C225   1.470       .  S
C84         C265   1.469       .  S
C85         C285   1.471       .  S
C86         C245   1.470       .  S
N87          N88   1.318       .  A
N87          C91   1.348       .  A
N87         Cu95   2.072       .  S
N88          C89   1.340       .  A
N88         Cu94   2.051       .  S
C89          C90   1.383       .  A
C89          H92   1.081       .  S
C90          C91   1.389       .  A
C90         C222   1.478       .  S
C91          H93   1.082       .  S
Cu94         N97   2.051       .  S
Cu95        N105   2.075       .  S
Cu96         N98   2.089       .  S
Cu96        N104   2.091       .  S
N97          N98   1.321       .  A
N97         C101   1.336       .  A
N98          C99   1.352       .  A
C99         C100   1.392       .  A
C99         H102   1.082       .  S
C100        C101   1.380       .  A
C100        C212   1.481       .  S
C101        H103   1.081       .  S
N104        N105   1.326       .  A
N104        C108   1.349       .  A
N105        C106   1.341       .  A
C106        C107   1.379       .  A
C106        H109   1.082       .  S
C107        C108   1.385       .  A
C108        H110   1.082       .  S
C111        C192   1.551       .  S
C111        C202   1.554       .  S
C111        C215   1.557       .  S
C111        C275   1.560   1_655  S
C112        C175   1.552       .  S
C112        C182   1.554       .  S
C112        C235   1.556       .  S
C112        C255   1.559   1_655  S
N113        N114   1.321       .  A
N113        C117   1.346       .  A
N113       Cu121   2.076       .  S
N114        C115   1.343       .  A
N114       Cu410   2.069   1_554  S
C115        C116   1.386       .  A
C115        H118   1.081       .  S
C116        C117   1.387       .  A
C116        C205   1.482       .  S
C117        H119   1.082       .  S
Cu120       N123   2.069       .  S
Cu120       N404   2.069       .  S
Cu121       N131   2.076       .  S
Cu122       N124   2.076       .  S
Cu122       N130   2.077       .  S
N123        N124   1.322       .  A
N123        C127   1.344       .  A
N124        C125   1.346       .  A
C125        C126   1.385       .  A
C125        H128   1.082       .  S
C126        C127   1.384       .  A
C126        C195   1.478       .  S
C127        H129   1.082       .  S
N130        N421   1.323       .  A
N130        C134   1.346       .  A
N131        N420   1.323   1_554  A
N131        C132   1.345       .  A
C132        C423   1.384   1_554  A
C132        H135   1.082       .  S
C133        C134   1.384       .  A
C133        C422   1.384       .  A
C133        C162   1.477       .  S
C134        H136   1.082       .  S
N137        N138   1.321       .  A
N137        C141   1.346       .  A
N137       Cu145   2.075       .  S
N138        C139   1.344       .  A
N138       Cu144   2.071       .  S
C139        C140   1.385       .  A
C139        H142   1.082       .  S
C140        C141   1.386       .  A
C140        C172   1.480       .  S
C141        H143   1.081       .  S
Cu144       N437   2.071       .  S
Cu145       N155   2.075       .  S
Cu146       N148   2.077       .  S
Cu146       N154   2.077       .  S
N147        N148   1.321       .  A
N147        C151   1.344       .  A
N147       Cu434   2.071   1_554  S
N148        C149   1.346       .  A
C149        C150   1.386       .  A
C149        H152   1.082       .  S
C150        C151   1.386       .  A
C150        C185   1.482       .  S
C151        H153   1.081       .  S
N154        N445   1.323   1_554  A
N154        C158   1.346       .  A
N155        N444   1.323       .  A
N155        C156   1.345       .  A
C156        C157   1.384       .  A
C156        H159   1.082       .  S
C157        C448   1.384       .  A
C157        C165   1.477       .  S
C158        C447   1.384   1_554  A
C158        H160   1.082       .  S
C161        C162   1.404       .  A
C161        C166   1.399   1_545  A
C161        H168   1.083       .  S
C162        C453   1.406   1_655  A
C163        C164   1.399   1_545  A
C163        C452   1.406   1_454  A
C163        F170   1.357       .  S
C164        C455   1.403   1_454  A
C164        H169   1.083       .  S
C165        C166   1.406       .  A
C165        C454   1.403   1_655  A
C166        F167   1.357       .  S
C171        C172   1.399       .  A
C171        C176   1.396       .  A
C171        H178   1.082       .  S
C172        C173   1.403   1_655  A
C173        C174   1.399       .  A
C173        F180   1.357       .  S
C174        C175   1.415   1_455  A
C174        H179   1.081       .  S
C175        C176   1.421       .  A
C176        F177   1.355       .  S
C181        C182   1.415       .  A
C181        C186   1.395   1_655  A
C181        H188   1.081   1_655  S
C182        C183   1.419       .  A
C183        C184   1.400       .  A
C183        F190   1.356       .  S
C184        C185   1.402       .  A
C184        H189   1.083       .  S
C185        C186   1.403   1_655  A
C186        F187   1.357       .  S
C191        C192   1.415       .  A
C191        C196   1.395       .  A
C191        H198   1.079       .  S
C192        C193   1.419   1_655  A
C193        C194   1.399       .  A
C193        F200   1.357       .  S
C194        C195   1.400   1_455  A
C194        H199   1.083       .  S
C195        C196   1.402       .  A
C196        F197   1.357       .  S
C201        C202   1.414   1_455  A
C201        C206   1.394       .  A
C201        H208   1.081       .  S
C202        C203   1.419       .  A
C203        C204   1.400       .  A
C203        F210   1.356       .  S
C204        C205   1.402       .  A
C204        H209   1.083       .  S
C205        C206   1.403   1_655  A
C206        F207   1.357       .  S
C211        C212   1.403       .  A
C211        C216   1.405       .  A
C211        H218   1.082       .  S
C212        C213   1.404       .  A
C213        C214   1.390       .  A
C213        F220   1.357       .  S
C214        C215   1.412       .  A
C214        H219   1.080       .  S
C215        C216   1.420       .  A
C216        F217   1.356       .  S
C221        C222   1.405       .  A
C221        C226   1.395       .  A
C221        H228   1.083       .  S
C222        C223   1.407       .  A
C223        C224   1.401       .  A
C223        F230   1.357       .  S
C224        C225   1.404       .  A
C224        H229   1.083       .  S
C225        C226   1.403       .  A
C226        F227   1.358       .  S
C231        C232   1.403       .  A
C231        C236   1.405       .  A
C231        H238   1.082       .  S
C232        C233   1.403       .  A
C233        C234   1.389       .  A
C233        F240   1.358       .  S
C234        C235   1.412       .  A
C234        H239   1.080       .  S
C235        C236   1.419       .  A
C236        F237   1.356       .  S
C241        C242   1.405       .  A
C241        C246   1.395       .  A
C241        H248   1.083       .  S
C242        C243   1.407       .  A
C243        C244   1.401       .  A
C243        F250   1.357       .  S
C244        C245   1.404       .  A
C244        H249   1.083       .  S
C245        C246   1.403       .  A
C246        F247   1.358       .  S
C251        C252   1.402       .  A
C251        C256   1.405       .  A
C251        H258   1.082       .  S
C252        C253   1.402       .  A
C253        C254   1.389       .  A
C253        F260   1.358       .  S
C254        C255   1.412       .  A
C254        H259   1.078   1_455  S
C255        C256   1.421       .  A
C256        F257   1.356       .  S
C261        C262   1.405       .  A
C261        C266   1.395       .  A
C261        H268   1.083       .  S
C262        C263   1.408       .  A
C263        C264   1.401       .  A
C263        F270   1.357       .  S
C264        C265   1.403       .  A
C264        H269   1.083       .  S
C265        C266   1.402       .  A
C266        F267   1.358       .  S
C271        C272   1.399       .  A
C271        C276   1.390       .  A
C271        H278   1.083       .  S
C272        C273   1.404       .  A
C273        C274   1.404       .  A
C273        F280   1.356       .  S
C274        C275   1.417       .  A
C274        H279   1.081       .  S
C275        C276   1.418       .  A
C276        F277   1.356   1_455  S
C281        C282   1.405       .  A
C281        C286   1.395       .  A
C281        H288   1.083       .  S
C282        C283   1.408       .  A
C283        C284   1.401       .  A
C283        F290   1.357       .  S
C284        C285   1.404       .  A
C284        H289   1.083       .  S
C285        C286   1.403       .  A
C286        F287   1.358       .  S
N291        N292   1.318       .  A
N291        C295   1.348       .  A
N291       Cu299   2.072       .  S
N292        C293   1.340       .  A
N292       Cu298   2.056       .  S
C293        C294   1.384       .  A
C293        H296   1.081       .  S
C294        C295   1.389       .  A
C294        C572   1.480       .  S
C295        H297   1.081       .  S
Cu298       N301   2.056       .  S
Cu299       N309   2.074       .  S
Cu300       N302   2.088       .  S
Cu300       N308   2.090       .  S
N301        N302   1.321       .  A
N301        C305   1.337       .  A
N302        C303   1.352       .  A
C303        C304   1.391       .  A
C303        H306   1.082       .  S
C304        C305   1.380       .  A
C304        C562   1.480       .  S
C305        H307   1.082       .  S
N308        N309   1.326       .  A
N308        C312   1.349       .  A
N309        C310   1.341       .  A
C310        C311   1.379       .  A
C310        H313   1.082       .  S
C311        C312   1.385       .  A
C311        C397   1.471       .  S
C312        H314   1.082       .  S
N315        N316   1.318       .  A
N315        C319   1.348       .  A
N315       Cu323   2.071       .  S
N316        C317   1.340       .  A
N316       Cu322   2.055       .  S
C317        C318   1.384       .  A
C317        H320   1.081       .  S
C318        C319   1.389       .  A
C318        C552   1.480       .  S
C319        H321   1.081       .  S
Cu322       N325   2.055       .  S
Cu323       N333   2.074       .  S
Cu324       N326   2.087       .  S
Cu324       N332   2.089       .  S
N325        N326   1.321       .  A
N325        C329   1.337       .  A
N326        C327   1.352       .  A
C327        C328   1.390       .  A
C327        H330   1.082       .  S
C328        C329   1.380       .  A
C328        C542   1.479       .  S
C329        H331   1.081       .  S
N332        N333   1.326       .  A
N332        C336   1.349       .  A
N333        C334   1.340       .  A
C334        C335   1.379       .  A
C334        H337   1.082       .  S
C335        C336   1.384       .  A
C335        C359   1.470       .  S
C336        H338   1.082       .  S
N339        N340   1.318       .  A
N339        C343   1.348       .  A
N339       Cu347   2.071       .  S
N340        C341   1.340       .  A
N340       Cu346   2.052       .  S
C341        C342   1.382       .  A
C341        H344   1.081       .  S
C342        C343   1.389       .  A
C342        C532   1.478       .  S
C343        H345   1.082       .  S
Cu346       N349   2.052       .  S
Cu347       N357   2.074       .  S
Cu348       N350   2.088       .  S
Cu348       N356   2.090       .  S
N349        N350   1.321       .  A
N349        C353   1.336       .  A
N350        C351   1.352       .  A
C351        C352   1.391       .  A
C351        H354   1.082       .  S
C352        C353   1.380       .  A
C352        C522   1.481       .  S
C353        H355   1.081       .  S
N356        N357   1.326       .  A
N356        C360   1.349       .  A
N357        C358   1.340       .  A
C358        C359   1.379       .  A
C358        H361   1.082       .  S
C359        C360   1.385       .  A
C360        H362   1.082       .  S
O363       Cu371   2.014       .  S
O363        C373   1.279       .  A
O364       Cu371   2.001   1_455  S
O364        C374   1.276       .  A
O365       Cu371   2.001   1_455  S
O365        C375   1.276       .  A
O366       Cu371   2.014       .  S
O366        C376   1.279       .  A
O367       Cu372   2.000       .  S
O367        C376   1.276       .  A
O368       Cu372   2.014   1_455  S
O368        C375   1.279       .  A
O369       Cu372   2.014   1_455  S
O369        C374   1.279       .  A
O370       Cu372   2.000       .  S
O370        C373   1.276       .  A
Cu371      Cu372   2.377       .  S
C373        C515   1.470       .  S
C374        C555   1.469       .  S
C375        C575   1.471       .  S
C376        C535   1.470       .  S
N377        N378   1.318       .  A
N377        C381   1.348       .  A
N377       Cu385   2.072       .  S
N378        C379   1.340       .  A
N378       Cu384   2.051       .  S
C379        C380   1.383       .  A
C379        H382   1.081       .  S
C380        C381   1.389       .  A
C380        C512   1.478       .  S
C381        H383   1.082       .  S
Cu384       N387   2.051       .  S
Cu385       N395   2.075       .  S
Cu386       N388   2.089       .  S
Cu386       N394   2.091       .  S
N387        N388   1.321       .  A
N387        C391   1.336       .  A
N388        C389   1.352       .  A
C389        C390   1.392       .  A
C389        H392   1.082       .  S
C390        C391   1.380       .  A
C390        C502   1.481       .  S
C391        H393   1.081       .  S
N394        N395   1.326       .  A
N394        C398   1.349       .  A
N395        C396   1.341       .  A
C396        C397   1.379       .  A
C396        H399   1.082       .  S
C397        C398   1.385       .  A
C398        H400   1.082       .  S
C401        C482   1.551       .  S
C401        C492   1.554       .  S
C401        C505   1.557       .  S
C401        C565   1.560   1_655  S
C402        C465   1.552       .  S
C402        C472   1.554       .  S
C402        C525   1.556       .  S
C402        C545   1.559   1_655  S
N403        N404   1.321       .  A
N403        C407   1.346       .  A
N403       Cu411   2.076       .  S
N404        C405   1.343       .  A
C405        C406   1.386       .  A
C405        H408   1.081       .  S
C406        C407   1.387       .  A
C406        C495   1.482       .  S
C407        H409   1.082       .  S
Cu410       N413   2.069       .  S
Cu411       N421   2.076       .  S
Cu412       N414   2.076       .  S
Cu412       N420   2.077       .  S
N413        N414   1.322       .  A
N413        C417   1.344       .  A
N414        C415   1.346       .  A
C415        C416   1.385       .  A
C415        H418   1.082       .  S
C416        C417   1.384       .  A
C416        C485   1.478       .  S
C417        H419   1.082       .  S
N420        C424   1.346       .  A
N421        C422   1.345       .  A
C422        H425   1.082       .  S
C423        C424   1.384       .  A
C423        C452   1.477       .  S
C424        H426   1.082       .  S
N427        N428   1.321       .  A
N427        C431   1.346       .  A
N427       Cu435   2.075       .  S
N428        C429   1.344       .  A
N428       Cu434   2.071       .  S
C429        C430   1.385       .  A
C429        H432   1.082       .  S
C430        C431   1.386       .  A
C430        C462   1.480       .  S
C431        H433   1.081       .  S
Cu435       N445   2.075       .  S
Cu436       N438   2.077       .  S
Cu436       N444   2.077       .  S
N437        N438   1.321       .  A
N437        C441   1.344       .  A
N438        C439   1.346       .  A
C439        C440   1.386       .  A
C439        H442   1.082       .  S
C440        C441   1.386       .  A
C440        C475   1.482       .  S
C441        H443   1.081       .  S
N444        C448   1.346       .  A
N445        C446   1.345       .  A
C446        C447   1.384       .  A
C446        H449   1.082       .  S
C447        C455   1.477       .  S
C448        H450   1.082       .  S
C451        C452   1.404       .  A
C451        C456   1.399   1_545  A
C451        H458   1.083       .  S
C453        C454   1.399   1_545  A
C453        F460   1.357       .  S
C454        H459   1.083       .  S
C455        C456   1.406       .  A
C456        F457   1.357       .  S
C461        C462   1.399       .  A
C461        C466   1.396       .  A
C461        H468   1.082       .  S
C462        C463   1.403   1_655  A
C463        C464   1.399       .  A
C463        F470   1.357       .  S
C464        C465   1.415   1_455  A
C464        H469   1.081       .  S
C465        C466   1.421       .  A
C466        F467   1.355       .  S
C471        C472   1.415       .  A
C471        C476   1.395   1_655  A
C471        H478   1.081   1_655  S
C472        C473   1.419       .  A
C473        C474   1.400       .  A
C473        F480   1.356       .  S
C474        C475   1.402       .  A
C474        H479   1.083       .  S
C475        C476   1.403   1_655  A
C476        F477   1.357       .  S
C481        C482   1.415       .  A
C481        C486   1.395       .  A
C481        H488   1.079       .  S
C482        C483   1.419   1_655  A
C483        C484   1.399       .  A
C483        F490   1.357       .  S
C484        C485   1.400   1_455  A
C484        H489   1.083       .  S
C485        C486   1.402       .  A
C486        F487   1.357       .  S
C491        C492   1.414   1_455  A
C491        C496   1.394       .  A
C491        H498   1.081       .  S
C492        C493   1.419       .  A
C493        C494   1.400       .  A
C493        F500   1.356       .  S
C494        C495   1.402       .  A
C494        H499   1.083       .  S
C495        C496   1.403   1_655  A
C496        F497   1.357       .  S
C501        C502   1.403       .  A
C501        C506   1.405       .  A
C501        H508   1.082       .  S
C502        C503   1.404       .  A
C503        C504   1.390       .  A
C503        F510   1.357       .  S
C504        C505   1.412       .  A
C504        H509   1.080       .  S
C505        C506   1.420       .  A
C506        F507   1.356       .  S
C511        C512   1.405       .  A
C511        C516   1.395       .  A
C511        H518   1.083       .  S
C512        C513   1.407       .  A
C513        C514   1.401       .  A
C513        F520   1.357       .  S
C514        C515   1.404       .  A
C514        H519   1.083       .  S
C515        C516   1.403       .  A
C516        F517   1.358       .  S
C521        C522   1.403       .  A
C521        C526   1.405       .  A
C521        H528   1.082       .  S
C522        C523   1.403       .  A
C523        C524   1.389       .  A
C523        F530   1.358       .  S
C524        C525   1.412       .  A
C524        H529   1.080       .  S
C525        C526   1.419       .  A
C526        F527   1.356       .  S
C531        C532   1.405       .  A
C531        C536   1.395       .  A
C531        H538   1.083       .  S
C532        C533   1.407       .  A
C533        C534   1.401       .  A
C533        F540   1.357       .  S
C534        C535   1.404       .  A
C534        H539   1.083       .  S
C535        C536   1.403       .  A
C536        F537   1.358       .  S
C541        C542   1.402       .  A
C541        C546   1.405       .  A
C541        H548   1.082       .  S
C542        C543   1.402       .  A
C543        C544   1.389       .  A
C543        F550   1.358       .  S
C544        C545   1.412       .  A
C544        H549   1.078   1_455  S
C545        C546   1.421       .  A
C546        F547   1.356       .  S
C551        C552   1.405       .  A
C551        C556   1.395       .  A
C551        H558   1.083       .  S
C552        C553   1.408       .  A
C553        C554   1.401       .  A
C553        F560   1.357       .  S
C554        C555   1.403       .  A
C554        H559   1.083       .  S
C555        C556   1.402       .  A
C556        F557   1.358       .  S
C561        C562   1.399       .  A
C561        C566   1.390       .  A
C561        H568   1.083       .  S
C562        C563   1.404       .  A
C563        C564   1.404       .  A
C563        F570   1.356       .  S
C564        C565   1.417       .  A
C564        H569   1.081       .  S
C565        C566   1.418       .  A
C566        F567   1.356   1_455  S
C571        C572   1.405       .  A
C571        C576   1.395       .  A
C571        H578   1.083       .  S
C572        C573   1.408       .  A
C573        C574   1.401       .  A
C573        F580   1.357       .  S
C574        C575   1.404       .  A
C574        H579   1.083       .  S
C575        C576   1.403       .  A
C576        F577   1.358       .  S
