geometry optimzed in LAMMPS
_audit_creation_date              2020-12-01 
_audit_creation_method            'lammps2cif' 
_symmetry_space_group_name_H-M    'P1' 
_symmetry_Int_Tables_number       1 
_symmetry_cell_setting            triclinic 
loop_ 
_symmetry_equiv_pos_as_xyz 
  x,y,z 
_cell_length_a                    47.04166831 
_cell_length_b                    45.579114235677345 
_cell_length_c                    46.07528644902005 
_cell_angle_alpha                 89.0073333224553 
_cell_angle_beta                  89.94132567109176 
_cell_angle_gamma                 90.07208783213169 
loop_ 
_atom_site_label 
_atom_site_type_symbol 
_atom_site_fract_x 
_atom_site_fract_y 
_atom_site_fract_z 
_atom_site_charge 
C1          C  0.77063089  0.46564836  0.04082303     0.86300
C2          C  0.75231705  0.49334691  0.04426000    -0.53900
C3          C  0.73429460  0.49941720  0.02150740     0.09200
C4          C  0.73812491  0.47800746  0.99606067     0.20200
C5          C  0.74837890  0.44159094  0.03394517    -0.54600
C6          C  0.73135263  0.44805536  0.01056826     0.09300
C7          C  0.78676602  0.47030852  0.01264439    -0.54200
C8          C  0.77058088  0.47737233  0.98934644     0.09900
H9          H  0.75334832  0.50660305  0.06352758     0.14400
H10         H  0.72459211  0.48285687  0.97688904     0.00200
H11         H  0.74456418  0.42203568  0.04701371     0.14700
H12         H  0.80980233  0.46870107  0.01129361     0.14500
C13         C  0.53395998  0.71611318  0.00097552     0.86300
C14         C  0.53064477  0.73292944  0.97178005    -0.53900
C15         C  0.50871819  0.75295637  0.97078101     0.09200
C16         C  0.49043585  0.75200142  0.99871538     0.20200
C17         C  0.53405859  0.73975437  0.02428305    -0.54600
C18         C  0.51188544  0.75904963  0.02277083     0.09300
C19         C  0.50510534  0.70086887  0.00414842    -0.54200
C20         C  0.48237622  0.71918837  0.00334010     0.09900
H21         H  0.54422365  0.72930547  0.95323445     0.14400
H22         H  0.47214307  0.76714671  0.99872227     0.00200
H23         H  0.55066785  0.74113998  0.04054736     0.14700
H24         H  0.50254497  0.67720923  0.00592512     0.14500
C25         C  0.02312778  0.52169178  0.78001719     0.86300
C26         C  0.02282444  0.49372802  0.76137654    -0.53900
C27         C  0.99847701  0.48955466  0.74561396     0.09200
C28         C  0.97613355  0.51380961  0.75059100     0.20200
C29         C  0.01690725  0.54615872  0.75724724    -0.54600
C30         C  0.99224551  0.54212272  0.74185877     0.09300
C31         C  0.99659371  0.51953907  0.79872906    -0.54200
C32         C  0.97213295  0.51561759  0.78393902     0.09900
H33         H  0.04123780  0.47978796  0.75850418     0.14400
H34         H  0.95608516  0.51087126  0.73833199     0.00200
H35         H  0.03090612  0.56470589  0.75322249     0.14700
H36         H  0.99709138  0.52098084  0.82226398     0.14500
C37         C  0.51893583  0.97449175  0.70678539     0.86300
C38         C  0.51667287  0.00316615  0.72346513    -0.53900
C39         C  0.49217766  0.00651319  0.73916066     0.09200
C40         C  0.47238884  0.97931173  0.73764087     0.20200
C41         C  0.51588026  0.95095556  0.73105528    -0.54600
C42         C  0.49178495  0.95361125  0.74755815     0.09300
C43         C  0.49171787  0.97179169  0.68931939    -0.54200
C44         C  0.46751128  0.97472706  0.70481112     0.09900
H45         H  0.53426913  0.01849344  0.72405591     0.14400
H46         H  0.45235271  0.98101705  0.75019193     0.00200
H47         H  0.53176029  0.93467085  0.73661866     0.14700
H48         H  0.49154729  0.96769792  0.66613099     0.14500
C49         C  0.72727103  0.01567613  0.50852162     0.86300
C50         C  0.74740866  0.98936060  0.50738141    -0.53900
C51         C  0.76591111  0.98959870  0.48444159     0.09200
C52         C  0.76145754  0.01597489  0.46359236     0.20200
C53         C  0.74778719  0.04231270  0.50691402    -0.54600
C54         C  0.76600552  0.04219698  0.48357010     0.09300
C55         C  0.71193946  0.01648541  0.47972577    -0.54200
C56         C  0.72923106  0.01609402  0.45630665     0.09900
H57         H  0.74857862  0.97316082  0.52492959     0.14400
H58         H  0.77570877  0.01605149  0.44441910     0.00200
H59         H  0.75024683  0.05835472  0.52375777     0.14700
H60         H  0.68890223  0.01744789  0.47788767     0.14500
C61         C  0.03010003  0.78513378  0.51459982     0.86300
C62         C  0.02507246  0.76295753  0.53991509    -0.53900
C63         C  0.99877908  0.74970370  0.53973811     0.09200
C64         C  0.98064214  0.75880062  0.51299927     0.20200
C65         C  0.02554097  0.76643707  0.48767036    -0.54600
C66         C  0.99966224  0.75284439  0.48625933     0.09300
C67         C  0.00455834  0.80574677  0.51627211    -0.54200
C68         C  0.97884097  0.79247379  0.51452652     0.09900
H69         H  0.04050405  0.75771422  0.55653349     0.14400
H70         H  0.95938492  0.74829209  0.51230720     0.00200
H71         H  0.04199180  0.76375610  0.47141428     0.14700
H72         H  0.00671700  0.82940178  0.51799207     0.14500
C73         C  0.22522601  0.50240897  0.04620002     0.86300
C74         C  0.24246772  0.47465775  0.03974797    -0.53900
C75         C  0.25732162  0.47548637  0.01410054     0.09200
C76         C  0.25402177  0.50522278  0.99759746     0.20200
C77         C  0.24817615  0.52681370  0.04546297    -0.54600
C78         C  0.26341096  0.52802519  0.02003556     0.09300
C79         C  0.20728255  0.50886468  0.01929135    -0.54200
C80         C  0.22169941  0.51000621  0.99389454     0.09900
H81         H  0.24404649  0.45679939  0.05548764     0.14400
H82         H  0.26581531  0.50702256  0.97679621     0.00200
H83         H  0.25256497  0.54178146  0.06288264     0.14700
H84         H  0.18439177  0.51202089  0.02030332     0.14500
O85         O  0.02832959  0.47730409  0.03731487    -0.74600
O86         O  0.96946599  0.47538684  0.97912509    -0.74600
O87         O  0.02692400  0.48361063  0.97866349    -0.74700
O88         O  0.97115555  0.46862879  0.03808679    -0.74700
O89         O  0.96390760  0.51649888  0.04265039    -0.74700
O90         O  0.02114979  0.53163680  0.98378414    -0.74600
O91         O  0.96346061  0.52345451  0.98339680    -0.74600
O92         O  0.02131126  0.52501343  0.04277389    -0.74700
Ni93       Ni  0.99914218  0.47458572  0.00812103     1.25400
Ni94       Ni  0.99217700  0.52585827  0.01327652     1.25400
C95         C  0.03468411  0.50145055  0.04978158     0.87600
C96         C  0.95693256  0.49921368  0.97121906     0.87500
C97         C  0.03360251  0.51004113  0.97150789     0.87500
C98         C  0.95850778  0.48990964  0.05057176     0.87700
N99         N  0.86785404  0.50065404  0.88367684    -0.03600
C100        C  0.83910485  0.49991021  0.88736173    -0.01100
C101        C  0.82540777  0.50134981  0.86087716    -0.23900
C102        C  0.84617767  0.50262490  0.83999991    -0.24100
C103        C  0.87184389  0.50201459  0.85444885    -0.01200
H104        H  0.80270871  0.50055353  0.85716314     0.12600
H105        H  0.84297609  0.50378335  0.81675233     0.12700
C106        C  0.98275189  0.54995217  0.27908365     0.86300
C107        C  0.00945133  0.55090048  0.25979765    -0.53900
C108        C  0.01496979  0.52518928  0.24585519     0.09200
C109        C  0.99284703  0.50078422  0.25257641     0.20200
C110        C  0.95943525  0.54082854  0.25733798    -0.54600
C111        C  0.96369920  0.51428159  0.24446795     0.09300
C112        C  0.98632038  0.52311046  0.29933915    -0.54200
C113        C  0.99223263  0.49778017  0.28564976     0.09900
H114        H  0.02201722  0.57066582  0.25661228     0.14400
H115        H  0.99771692  0.47952591  0.24241228     0.00200
H116        H  0.94211614  0.55477408  0.25063682     0.14700
H117        H  0.98545219  0.52429561  0.32286341     0.14500
N118        N  0.87688599  0.45779246  0.14039467    -0.03600
C119        C  0.88097835  0.45761311  0.16966970    -0.01100
C120        C  0.85769994  0.44538332  0.18373085    -0.23900
C121        C  0.83831414  0.43854482  0.16281879    -0.24100
C122        C  0.85034557  0.44645392  0.13646503    -0.01200
H123        H  0.85436655  0.44357444  0.20694347     0.12600
H124        H  0.81685154  0.43080794  0.16662627     0.12700
N125        N  0.12415298  0.52674076  0.88697035    -0.03600
C126        C  0.12026203  0.53265437  0.85817591    -0.01100
C127        C  0.14587190  0.53834125  0.84458523    -0.23900
C128        C  0.16647550  0.53576858  0.86547067    -0.24100
C129        C  0.15278864  0.52887502  0.89124212    -0.01200
H130        H  0.14925457  0.54271272  0.82167957     0.12600
H131        H  0.18913404  0.53836006  0.86221445     0.12700
O132        O  0.51876786  0.46182359  0.02125178    -0.74600
O133        O  0.46511218  0.52561288  0.02515799    -0.74600
O134        O  0.46101778  0.46660590  0.01909654    -0.74700
O135        O  0.52277306  0.52068944  0.02768427    -0.74700
O136        O  0.52540228  0.52664649  0.97972310    -0.74700
O137        O  0.46329360  0.47262579  0.97114772    -0.74600
O138        O  0.46760809  0.53141086  0.97712664    -0.74600
O139        O  0.52116388  0.46797189  0.97327596    -0.74700
Ni140      Ni  0.49181886  0.49347338  0.02499329     1.25400
Ni141      Ni  0.49442695  0.49985936  0.97362989     1.25400
C142        C  0.52933128  0.45480863  0.99660932     0.87600
C143        C  0.45740559  0.53896391  0.00169921     0.87500
C144        C  0.45158856  0.46095704  0.99374563     0.87500
C145        C  0.53450699  0.53245697  0.00520668     0.87700
N146        N  0.63188948  0.60706561  0.02369051    -0.03600
C147        C  0.65999105  0.60027797  0.02651506    -0.01100
C148        C  0.67592010  0.62544689  0.02968499    -0.23900
C149        C  0.65731626  0.64860542  0.02812921    -0.24100
C150        C  0.63045874  0.63693800  0.02413804    -0.01200
H151        H  0.69879752  0.62684657  0.03170975     0.12600
H152        H  0.66291393  0.67162186  0.02879629     0.12700
C153        C  0.47992878  0.22404742  0.93856479     0.86300
C154        C  0.45505637  0.24589959  0.94156583    -0.53900
C155        C  0.45720904  0.26465901  0.96413215     0.09200
C156        C  0.48312310  0.25829103  0.98362887     0.20200
C157        C  0.50666258  0.24401457  0.93885569    -0.54600
C158        C  0.50843399  0.26178302  0.96259597     0.09300
C159        C  0.48020388  0.20760287  0.96763116    -0.54200
C160        C  0.48188747  0.22506241  0.99112862     0.09900
H161        H  0.43739804  0.24807961  0.92687889     0.14400
H162        H  0.48449478  0.27253147  0.00289103     0.00200
H163        H  0.52291995  0.24366284  0.92213636     0.14700
H164        H  0.47835747  0.18386962  0.96957257     0.14500
O165        O  0.46338046  0.96914038  0.95614036    -0.74600
O166        O  0.45856033  0.03229547  0.01009430    -0.74600
O167        O  0.45896908  0.02825952  0.95085658    -0.74700
O168        O  0.46318692  0.97296770  0.01467335    -0.74700
O169        O  0.51021728  0.97778290  0.01466650    -0.74700
O170        O  0.50608699  0.03233976  0.95046461    -0.74600
O171        O  0.50559019  0.03708609  0.00972797    -0.74600
O172        O  0.51049449  0.97318061  0.95625874    -0.74700
Ni173      Ni  0.45935879  0.00065463  0.98296061     1.25400
Ni174      Ni  0.50975472  0.00532852  0.98278995     1.25400
C175        C  0.48777422  0.96049150  0.94744627     0.87600
C176        C  0.48112272  0.04509407  0.01907167     0.87500
C177        C  0.48177892  0.03907721  0.93972732     0.87500
C178        C  0.48756241  0.96582766  0.02493510     0.87700
N179        N  0.50277138  0.86479259  0.86807152    -0.03600
C180        C  0.50690553  0.83549132  0.87330802    -0.01100
C181        C  0.50608249  0.82028470  0.84765386    -0.23900
C182        C  0.50151510  0.84051743  0.82583803    -0.24100
C183        C  0.49942211  0.86756569  0.83872622    -0.01200
H184        H  0.50796811  0.79679166  0.84521653     0.12600
H185        H  0.49951544  0.83597409  0.80295143     0.12700
C186        C  0.53006880  0.01104483  0.25030063     0.86300
C187        C  0.52806214  0.98411089  0.23056084    -0.53900
C188        C  0.50309063  0.98196389  0.21553319     0.09200
C189        C  0.48192119  0.00679434  0.22210788     0.20200
C190        C  0.52386319  0.03701530  0.22975019    -0.54600
C191        C  0.49876370  0.03520236  0.21480780     0.09300
C192        C  0.50406430  0.00793777  0.26983639    -0.54200
C193        C  0.47898459  0.00556099  0.25558235     0.09900
H194        H  0.54431236  0.96761239  0.22813508     0.14400
H195        H  0.46131030  0.00524061  0.21061704     0.00200
H196        H  0.53871909  0.05509067  0.22685961     0.14700
H197        H  0.50541135  0.00752589  0.29338606     0.14500
N198        N  0.50324334  0.87612105  0.11344187    -0.03600
C199        C  0.50494097  0.84643461  0.11110919    -0.01100
C200        C  0.50435522  0.83309971  0.13824732    -0.23900
C201        C  0.50175171  0.85510682  0.15804814    -0.24100
C202        C  0.50093755  0.88116528  0.14234501    -0.01200
H203        H  0.50510344  0.80978603  0.14303796     0.12600
H204        H  0.50061785  0.85244771  0.18140625     0.12700
N205        N  0.47675352  0.11557132  0.83859089    -0.03600
C206        C  0.47314996  0.10904308  0.81007478    -0.01100
C207        C  0.46740312  0.13448787  0.79418639    -0.23900
C208        C  0.46753467  0.15719676  0.81314271    -0.24100
C209        C  0.47290212  0.14502200  0.84016141    -0.01200
H210        H  0.46415286  0.13640959  0.77097488     0.12600
H211        H  0.46391429  0.18011635  0.80785834     0.12700
O212        O  0.02015700  0.49295308  0.53622848    -0.74600
O213        O  0.01392037  0.55422748  0.47804113    -0.74600
O214        O  0.01166292  0.55200825  0.53709977    -0.74700
O215        O  0.02229880  0.49513313  0.47741023    -0.74700
O216        O  0.97558764  0.48758251  0.47533495    -0.74700
O217        O  0.96505344  0.54444731  0.53505433    -0.74600
O218        O  0.96731956  0.54656459  0.47610095    -0.74600
O219        O  0.97341930  0.48553647  0.53414914    -0.74700
Ni220      Ni  0.01866342  0.52384042  0.50726362     1.25400
Ni221      Ni  0.96869879  0.51582448  0.50510070     1.25400
C222        C  0.99788070  0.47891410  0.54457904     0.87600
C223        C  0.98951724  0.56052239  0.46730353     0.87500
C224        C  0.98650927  0.55764143  0.54608492     0.87500
C225        C  0.00079617  0.48205728  0.46639242     0.87700
N226        N  0.96113115  0.64115924  0.63560933    -0.03600
C227        C  0.95762190  0.67068519  0.63196859    -0.01100
C228        C  0.94798241  0.68254313  0.65764418    -0.23900
C229        C  0.94619968  0.65999442  0.67772319    -0.24100
C230        C  0.95456561  0.63480286  0.66383903    -0.01200
H231        H  0.94443450  0.70553279  0.66188514     0.12600
H232        H  0.94134523  0.66215853  0.70054772     0.12700
O233        O  0.47513047  0.02179152  0.50668145    -0.74600
O234        O  0.53378650  0.03263754  0.44861158    -0.74600
O235        O  0.47548497  0.02707469  0.44781778    -0.74700
O236        O  0.53301388  0.02678875  0.50786657    -0.74700
O237        O  0.53695473  0.97848705  0.50393628    -0.74700
O238        O  0.48013158  0.97871771  0.44428057    -0.74600
O239        O  0.53811967  0.98429067  0.44498872    -0.74600
O240        O  0.47946857  0.97351150  0.50297827    -0.74700
Ni241      Ni  0.50428144  0.02882131  0.47777773     1.25400
Ni242      Ni  0.50886699  0.97711976  0.47383411     1.25400
C243        C  0.46742396  0.99582305  0.51443708     0.87600
C244        C  0.54607084  0.01032327  0.43749517     0.87500
C245        C  0.46749287  0.00260335  0.43699598     0.87500
C246        C  0.54418275  0.00237307  0.51623673     0.87700
N247        N  0.62613037  0.99107796  0.60988805    -0.03600
C248        C  0.62193489  0.98199152  0.63778684    -0.01100
C249        C  0.64698551  0.98377852  0.65339098    -0.23900
C250        C  0.66736578  0.99407444  0.63449459    -0.24100
C251        C  0.65390343  0.99859666  0.60821679    -0.01200
H252        H  0.64992979  0.97898462  0.67627298     0.12600
H253        H  0.68962649  0.99755334  0.63925514     0.12700
C254        C  0.23577023  0.04737366  0.47878573     0.86300
C255        C  0.25731361  0.04342211  0.50410323    -0.53900
C256        C  0.27073772  0.01668150  0.50476927     0.09200
C257        C  0.26198806  0.99680121  0.47969524     0.20200
C258        C  0.25419955  0.04197243  0.45182434    -0.54600
C259        C  0.26846260  0.01581427  0.45257484     0.09300
C260        C  0.21613150  0.02078742  0.48168279    -0.54200
C261        C  0.22945938  0.99451175  0.48210769     0.09900
H262        H  0.26332945  0.06036568  0.51896382     0.14400
H263        H  0.27259708  0.97505997  0.47984258     0.00200
H264        H  0.25703269  0.05819470  0.43452134     0.14700
H265        H  0.19313909  0.02264833  0.48314475     0.14500
O266        O  0.98323133  0.98501317  0.46949424    -0.74600
O267        O  0.04244348  0.04362720  0.46384870    -0.74600
O268        O  0.04142630  0.98344270  0.46702748    -0.74700
O269        O  0.98432041  0.04423512  0.46653100    -0.74700
O270        O  0.98709430  0.04627144  0.51452412    -0.74700
O271        O  0.04317690  0.98476868  0.51509639    -0.74600
O272        O  0.04501419  0.04484284  0.51199262    -0.74600
O273        O  0.98522695  0.98710800  0.51764185    -0.74700
Ni274      Ni  0.01293248  0.01399575  0.46501627     1.25400
Ni275      Ni  0.01532849  0.01577922  0.51647079     1.25400
C276        C  0.97357361  0.97736320  0.49456392     0.87600
C277        C  0.05338900  0.05420299  0.48698165     0.87500
C278        C  0.05156308  0.97362639  0.49115451     0.87500
C279        C  0.97566703  0.05486813  0.49055680     0.87700
N280        N  0.87852333  0.89701534  0.50396563    -0.03600
C281        C  0.85020742  0.90260322  0.50274971    -0.01100
C282        C  0.83461883  0.87718921  0.50684262    -0.23900
C283        C  0.85384437  0.85498883  0.51092279    -0.24100
C284        C  0.88049621  0.86765230  0.50923023    -0.01200
H285        H  0.81170256  0.87506818  0.50655771     0.12600
H286        H  0.84899073  0.83197472  0.51438332     0.12700
C287        C  0.97610350  0.24498251  0.51013363     0.86300
C288        C  0.97806722  0.26692997  0.53527512    -0.53900
C289        C  0.00188138  0.28418508  0.53449492     0.09200
C290        C  0.02207793  0.27750071  0.50907959     0.20200
C291        C  0.97903456  0.26492726  0.48284969    -0.54600
C292        C  0.00329689  0.28173655  0.48199126     0.09300
C293        C  0.00378835  0.22772227  0.51219351    -0.54200
C294        C  0.02776125  0.24419967  0.51102038     0.09900
H295        H  0.96220977  0.26991334  0.55195332     0.14400
H296        H  0.04182070  0.29087371  0.50881414     0.00200
H297        H  0.96279779  0.26611034  0.46616583     0.14700
H298        H  0.00438593  0.20388129  0.51216419     0.14500
N299        N  0.87961544  0.13398157  0.49977787    -0.03600
C300        C  0.85178473  0.12832227  0.49420606    -0.01100
C301        C  0.83565729  0.15346247  0.49654621    -0.23900
C302        C  0.85394451  0.17555626  0.50360290    -0.24100
C303        C  0.88066040  0.16316633  0.50554190    -0.01200
H304        H  0.81291938  0.15541539  0.49352015     0.12600
H305        H  0.84849688  0.19841342  0.50627088     0.12700
N306        N  0.13802940  0.88266490  0.49870882    -0.03600
C307        C  0.13507405  0.85366537  0.50557779    -0.01100
C308        C  0.16098159  0.83953324  0.50356700    -0.23900
C309        C  0.18061582  0.86046966  0.49556043    -0.24100
C310        C  0.16599331  0.88661225  0.49245856    -0.01200
H311        H  0.16508100  0.81637783  0.50699943     0.12600
H312        H  0.20321691  0.85709589  0.49279788     0.12700
N313        N  0.37621969  0.96918555  0.59613281    -0.03600
C314        C  0.34838561  0.96731303  0.58836859    -0.01100
C315        C  0.33281813  0.95349039  0.61014058    -0.23900
C316        C  0.35116195  0.94750034  0.63241044    -0.24100
C317        C  0.37756853  0.95732173  0.62348343    -0.01200
H318        H  0.30998696  0.95052784  0.61076512     0.12600
H319        H  0.34543863  0.93896912  0.65369363     0.12700
N320        N  0.00545132  0.39054338  0.63522444    -0.03600
C321        C  0.00412695  0.39420284  0.66445683    -0.01100
C322        C  0.00745558  0.36755020  0.67876840    -0.23900
C323        C  0.01138362  0.34683887  0.65781982    -0.24100
C324        C  0.01036702  0.36147675  0.63130762    -0.01200
H325        H  0.00734445  0.36367475  0.70200812     0.12600
H326        H  0.01425572  0.32351849  0.66150441     0.12700
N327        N  0.13295722  0.15165912  0.47716436    -0.03600
C328        C  0.12704418  0.18091085  0.47525000    -0.01100
C329        C  0.15184833  0.19699511  0.47210049    -0.23900
C330        C  0.17379298  0.17735003  0.47221235    -0.24100
C331        C  0.16177428  0.14990644  0.47580038    -0.01200
H332        H  0.15389526  0.22065008  0.47154296     0.12600
H333        H  0.19621541  0.18253914  0.47082535     0.12700
N334        N  0.63482705  0.02465928  0.34999779    -0.03600
C335        C  0.63134394  0.02600261  0.32072805    -0.01100
C336        C  0.65603862  0.03491482  0.30691907    -0.23900
C337        C  0.67581546  0.03887824  0.32819321    -0.24100
C338        C  0.66235054  0.03258557  0.35420031    -0.01200
H339        H  0.65933197  0.03781701  0.28379407     0.12600
H340        H  0.69795080  0.04461078  0.32503069     0.12700
N341        N  0.96780212  0.65290440  0.38245502    -0.03600
C342        C  0.96471504  0.68186300  0.38862013    -0.01100
C343        C  0.95593868  0.69724435  0.36402943    -0.23900
C344        C  0.95429234  0.67761168  0.34197878    -0.24100
C345        C  0.96151626  0.65057498  0.35370117    -0.01200
H346        H  0.95271013  0.72069516  0.36193116     0.12600
H347        H  0.94962987  0.68278868  0.31947686     0.12700
N348        N  0.61283968  0.36154888  0.99203454    -0.03600
C349        C  0.64176345  0.36437215  0.99041597    -0.01100
C350        C  0.65425028  0.33751735  0.98541013    -0.23900
C351        C  0.63273808  0.31739254  0.98362699    -0.24100
C352        C  0.60762386  0.33239764  0.98775555    -0.01200
H353        H  0.67674024  0.33310531  0.98315813     0.12600
H354        H  0.63505129  0.29428961  0.97912491     0.12700
N355        N  0.47234704  0.13470933  0.10640885    -0.03600
C356        C  0.46836077  0.13158267  0.13566660    -0.01100
C357        C  0.45716476  0.15723676  0.14664000    -0.23900
C358        C  0.45544558  0.17709780  0.12408053    -0.24100
C359        C  0.46464981  0.16279656  0.09969049    -0.01200
H360        H  0.45157359  0.16143020  0.16896804     0.12600
H361        H  0.44874580  0.19973577  0.12544232     0.12700
N362        N  0.37026767  0.62819221  0.00473290    -0.03600
C363        C  0.34150893  0.62463076  0.00621614    -0.01100
C364        C  0.32842951  0.65140958  0.01038389    -0.23900
C365        C  0.34954569  0.67217299  0.01133191    -0.24100
C366        C  0.37490479  0.65750901  0.00772680    -0.01200
H367        H  0.30588272  0.65533924  0.01288746     0.12600
H368        H  0.34672971  0.69551411  0.01413581     0.12700
N369        N  0.11648722  0.49425894  0.14395386    -0.03600
C370        C  0.10940013  0.49238996  0.17266113    -0.01100
C371        C  0.13319172  0.48487363  0.18888501    -0.23900
C372        C  0.15567605  0.48335519  0.17011661    -0.24100
C373        C  0.14512877  0.48983382  0.14286347    -0.01200
H374        H  0.13448457  0.48297517  0.21229763     0.12600
H375        H  0.17768754  0.47967961  0.17592408     0.12700
N376        N  0.02275037  0.39227631  0.38251593    -0.03600
C377        C  0.03140936  0.36419386  0.38820671    -0.01100
C378        C  0.04293669  0.35235887  0.36328177    -0.23900
C379        C  0.04109864  0.37330580  0.34170952    -0.24100
C380        C  0.02891964  0.39760298  0.35403947    -0.01200
H381        H  0.05039902  0.33010821  0.36063066     0.12600
H382        H  0.04689490  0.37062730  0.31917907     0.12700
N383        N  0.37452040  0.99941920  0.35470148    -0.03600
C384        C  0.34655105  0.99391513  0.36007500    -0.01100
C385        C  0.33184708  0.99096465  0.33432250    -0.23900
C386        C  0.35127127  0.99426665  0.31233149    -0.24100
C387        C  0.37719581  0.99959799  0.32526967    -0.01200
H388        H  0.30922584  0.98751156  0.33179137     0.12600
H389        H  0.34698673  0.99282755  0.28932801     0.12700
N390        N  0.36156338  0.37680873  0.97746391    -0.03600
C391        C  0.33279755  0.38090846  0.97744193    -0.01100
C392        C  0.31945960  0.35455676  0.97112692    -0.23900
C393        C  0.34017570  0.33370800  0.96829395    -0.24100
C394        C  0.36568388  0.34771133  0.97269992    -0.01200
H395        H  0.29681091  0.35055306  0.96991792     0.12600
H396        H  0.33696653  0.31063820  0.96415986     0.12700
C397        C  0.05508136  0.22985631  0.50415697    -0.06300
C398        C  0.06803970  0.23719476  0.47764825    -0.17400
C399        C  0.09001205  0.22013281  0.46646667     0.10900
C400        C  0.09981538  0.19525505  0.48238339    -0.06200
C401        C  0.08696062  0.18804562  0.50902844    -0.17500
C402        C  0.06497506  0.20516801  0.52018148     0.10900
S403        S  0.10404512  0.23118222  0.43144769    -0.32400
S404        S  0.05099301  0.19492999  0.55540621    -0.32400
H405        H  0.04160314  0.22316848  0.56265161     0.28900
H406        H  0.11522142  0.20380417  0.42399007     0.28900
H407        H  0.06009548  0.25557958  0.46483226     0.19500
H408        H  0.09507108  0.16985687  0.52200153     0.19500
C409        C  0.95087079  0.22348209  0.50905568    -0.06300
C410        C  0.93060805  0.22216259  0.53162040    -0.17400
C411        C  0.90880595  0.20130498  0.53211675     0.10900
C412        C  0.90642897  0.18116797  0.50933632    -0.06200
C413        C  0.92652948  0.18177243  0.48707674    -0.17500
C414        C  0.94871102  0.20231101  0.48665064     0.10900
S415        S  0.88479441  0.20168460  0.56276780    -0.32400
S416        S  0.97392896  0.20059246  0.45707937    -0.32400
H417        H  0.96491413  0.17372747  0.44563304     0.28900
H418        H  0.87502396  0.17267869  0.56071543     0.28900
H419        H  0.93147783  0.23682125  0.54962612     0.19500
H420        H  0.92411875  0.16678453  0.46927332     0.19500
C421        C  0.00648058  0.30804603  0.55559391    -0.06300
C422        C  0.03068386  0.30709379  0.57325957    -0.17400
C423        C  0.03358529  0.32602610  0.59675837     0.10900
C424        C  0.01164553  0.34618490  0.60310411    -0.06200
C425        C  0.98843165  0.34853336  0.58416721    -0.17500
C426        C  0.98583552  0.33004947  0.56032361     0.10900
S427        S  0.06549969  0.32295503  0.61823544    -0.32400
S428        S  0.95547361  0.33535593  0.53697567    -0.32400
H429        H  0.96927851  0.32650618  0.51151433     0.28900
H430        H  0.06558811  0.35225247  0.62735636     0.28900
H431        H  0.04689025  0.29071501  0.56945332     0.19500
H432        H  0.97159264  0.36402065  0.58863130     0.19500
C433        C  0.01034386  0.30310677  0.45801923    -0.06300
C434        C  0.02271939  0.33036022  0.46474287    -0.17400
C435        C  0.03057263  0.35077848  0.44288533     0.10900
C436        C  0.02365126  0.34509075  0.41362743    -0.06200
C437        C  0.01071309  0.31816202  0.40721580    -0.17500
C438        C  0.00551755  0.29678729  0.42853298     0.10900
S439        S  0.05118311  0.38203838  0.45382669    -0.32400
S440        S  0.99609659  0.26095551  0.41588147    -0.32400
H441        H  0.01394527  0.24619200  0.43577472     0.28900
H442        H  0.06603676  0.38552769  0.42750365     0.28900
H443        H  0.02710775  0.33553577  0.48714997     0.19500
H444        H  0.00591988  0.31294233  0.38488239     0.19500
C445        C  0.07514756  0.07833448  0.48460302    -0.06300
C446        C  0.07389608  0.09792630  0.46067073    -0.17400
C447        C  0.09270922  0.12180458  0.45774985     0.10900
C448        C  0.11309525  0.12726334  0.47952879    -0.06200
C449        C  0.11474911  0.10756932  0.50325806    -0.17500
C450        C  0.09646267  0.08313779  0.50583157     0.10900
S451        S  0.09044827  0.14380468  0.42504755    -0.32400
S452        S  0.10251042  0.05822559  0.53596541    -0.32400
H453        H  0.09809668  0.03273441  0.51974215     0.28900
H454        H  0.11989116  0.14875394  0.42278812     0.28900
H455        H  0.05809091  0.09464361  0.44394481     0.19500
H456        H  0.13075404  0.11107544  0.51972552     0.19500
C457        C  0.11599002  0.90483498  0.49697677    -0.06300
C458        C  0.10889961  0.91723819  0.46988653    -0.17400
C459        C  0.08749993  0.93861862  0.46694823     0.10900
C460        C  0.07321445  0.94917652  0.49193613     0.04000
C461        C  0.08046905  0.93637191  0.51906481    -0.17500
C462        C  0.10144164  0.91454267  0.52180477     0.10900
S463        S  0.07980402  0.95126166  0.43060081    -0.32400
S464        S  0.10928652  0.90065547  0.55776509    -0.32400
H465        H  0.13778289  0.89336002  0.55240649     0.28900
H466        H  0.05117384  0.94233368  0.43226154     0.28900
H467        H  0.11986583  0.90967349  0.45073206     0.19500
H468        H  0.06994337  0.94361209  0.53858783     0.19500
C469        C  0.95159022  0.07658046  0.49138800    -0.06300
C470        C  0.94478278  0.08919613  0.51824267    -0.17400
C471        C  0.92127469  0.10786927  0.52150947     0.10900
C472        C  0.90341330  0.11399362  0.49761880    -0.06200
C473        C  0.90990521  0.10157459  0.47080127    -0.17500
C474        C  0.93390617  0.08361884  0.46720535     0.10900
S475        S  0.91354545  0.12267214  0.55668328    -0.32400
S476        S  0.94045719  0.07076116  0.43110709    -0.32400
H477        H  0.96815011  0.08249157  0.43010695     0.28900
H478        H  0.93847036  0.11296842  0.57065916     0.28900
H479        H  0.95778187  0.08417463  0.53702895     0.19500
H480        H  0.89653683  0.10669904  0.45226840     0.19500
C481        C  0.90154841  0.91785917  0.50046433    -0.06300
C482        C  0.90611260  0.93876391  0.52189430    -0.17400
C483        C  0.92858206  0.95891567  0.52003877     0.10900
C484        C  0.94833187  0.95745475  0.49682484    -0.06200
C485        C  0.94341196  0.93677785  0.47500878    -0.17500
C486        C  0.92009873  0.91742379  0.47636405     0.10900
S487        S  0.92966561  0.98689891  0.54719656    -0.32400
S488        S  0.91480395  0.89313079  0.44641848    -0.32400
H489        H  0.88526392  0.89001236  0.44993719     0.28900
H490        H  0.93577115  0.00979625  0.52724987     0.28900
H491        H  0.89213232  0.93931815  0.54041600     0.19500
H492        H  0.95777888  0.93570169  0.45666701     0.19500
C493        C  0.21768611  0.07538383  0.47704420    -0.06300
C494        C  0.21914681  0.09657504  0.49893441    -0.17400
C495        C  0.20013800  0.12002853  0.49983507     0.10900
C496        C  0.17904392  0.12307387  0.47830699    -0.06200
C497        C  0.17737952  0.10254346  0.45629156    -0.17500
C498        C  0.19645190  0.07896712  0.45514256     0.10900
S499        S  0.20367681  0.14518900  0.52947320    -0.32400
S500        S  0.19298432  0.05368325  0.42543711    -0.32400
H501        H  0.16758953  0.06504834  0.41375574     0.28900
H502        H  0.17466198  0.15238597  0.53113133     0.28900
H503        H  0.23443442  0.09507373  0.51621955     0.19500
H504        H  0.16160988  0.10563825  0.43941271     0.19500
C505        C  0.21327699  0.96676760  0.48522111    -0.06300
C506        C  0.21666763  0.94525547  0.46417538    -0.17400
C507        C  0.20019952  0.91967089  0.46487550     0.10900
C508        C  0.18023414  0.91515148  0.48747967    -0.06200
C509        C  0.17677074  0.93673028  0.50842017    -0.17500
C510        C  0.19306959  0.96241515  0.50766094     0.10900
S511        S  0.20521103  0.89400937  0.43596289    -0.32400
S512        S  0.18915205  0.98838718  0.53662600    -0.32400
H513        H  0.16657708  0.97417792  0.55119002     0.28900
H514        H  0.17722662  0.88310294  0.43642391     0.28900
H515        H  0.23165090  0.94877385  0.44661194     0.19500
H516        H  0.16218467  0.93282286  0.52621059     0.19500
C517        C  0.29330582  0.00803885  0.52595057    -0.06300
C518        C  0.31632726  0.99106564  0.51610620    -0.17400
C519        C  0.33581417  0.97829351  0.53552019     0.10900
C520        C  0.33380009  0.98452422  0.56529477    -0.06200
C521        C  0.31274468  0.00405014  0.57461473    -0.17500
C522        C  0.29181918  0.01467556  0.55580296     0.10900
S523        S  0.36092443  0.95251258  0.52122856    -0.32400
S524        S  0.26225963  0.03312474  0.57244719    -0.32400
H525        H  0.24152407  0.01873763  0.55600974     0.28900
H526        H  0.35747221  0.93199569  0.54404445     0.28900
H527        H  0.31837979  0.98632946  0.49324942     0.19500
H528        H  0.31089920  0.00875691  0.59753459     0.19500
C529        C  0.29167652  0.00864974  0.43200203    -0.06300
C530        C  0.29095939  0.98157995  0.41811656    -0.17400
C531        C  0.31083022  0.97477667  0.39663410     0.10900
C532        C  0.33176469  0.99563393  0.38839358    -0.06200
C533        C  0.33398459  0.02163147  0.40400076    -0.17500
C534        C  0.31450769  0.02815555  0.42596120     0.10900
S535        S  0.30790313  0.93941169  0.37993272    -0.32400
S536        S  0.32004643  0.06170021  0.44532491    -0.32400
H537        H  0.31149620  0.05003092  0.47236346     0.28900
H538        H  0.33660427  0.93768621  0.37153713     0.28900
H539        H  0.27430311  0.96596435  0.42336695     0.19500
H540        H  0.35009018  0.03766412  0.39813145     0.19500
C541        C  0.44296298  0.00171372  0.41631753    -0.06300
C542        C  0.43734537  0.02618365  0.39817383    -0.17400
C543        C  0.41451507  0.02631310  0.37845837     0.10900
C544        C  0.39712235  0.00117927  0.37593370    -0.06200
C545        C  0.40233412  0.97696611  0.39429347    -0.17500
C546        C  0.42448792  0.97710421  0.41466635     0.10900
S547        S  0.40792696  0.05959191  0.35799496    -0.32400
S548        S  0.42674230  0.94580770  0.43900609    -0.32400
H549        H  0.43091033  0.96273586  0.46391435     0.28900
H550        H  0.37838916  0.05553817  0.35590351     0.28900
H551        H  0.45070352  0.04549571  0.39948102     0.19500
H552        H  0.38873864  0.95784212  0.39287299     0.19500
C553        C  0.56962721  0.01437822  0.41557865    -0.06300
C554        C  0.57459177  0.99217682  0.39527579    -0.17400
C555        C  0.59626095  0.99455769  0.37424375     0.10900
C556        C  0.61317995  0.02021100  0.37228820    -0.06200
C557        C  0.60855970  0.04223799  0.39271913    -0.17500
C558        C  0.58759010  0.03946836  0.41443266     0.10900
S559        S  0.60227013  0.96332517  0.35176716    -0.32400
S560        S  0.58605064  0.06815825  0.44078904    -0.32400
H561        H  0.58339880  0.04872852  0.46472038     0.28900
H562        H  0.63185957  0.96719862  0.35050584     0.28900
H563        H  0.56166511  0.97248758  0.39595259     0.19500
H564        H  0.62169170  0.06176317  0.39188733     0.19500
C565        C  0.56522195  0.00079686  0.54076612    -0.06300
C566        C  0.57047435  0.97313888  0.55392897    -0.17400
C567        C  0.59039071  0.96938989  0.57631627     0.10900
C568        C  0.60548983  0.99379978  0.58665599    -0.06200
C569        C  0.60058941  0.02141505  0.57362793    -0.17500
C570        C  0.58062142  0.02527112  0.55118943     0.10900
S571        S  0.59645577  0.93264062  0.58986008    -0.32400
S572        S  0.57659124  0.06181279  0.53644096    -0.32400
H573        H  0.54807651  0.06377805  0.54547907     0.28900
H574        H  0.62540451  0.93674323  0.59609432     0.28900
H575        H  0.55918535  0.95394374  0.54652825     0.19500
H576        H  0.61226445  0.04023219  0.58133124     0.19500
C577        C  0.44449992  0.99089314  0.53691566    -0.06300
C578        C  0.44215605  0.96278112  0.54977867    -0.17400
C579        C  0.42023543  0.95545116  0.56921820     0.10900
C580        C  0.39996625  0.97674685  0.57725297    -0.06200
C581        C  0.40224858  0.00502447  0.56488018    -0.17500
C582        C  0.42414536  0.01235970  0.54505490     0.10900
S583        S  0.41831202  0.91770726  0.58116323    -0.32400
S584        S  0.42380931  0.04899076  0.52992559    -0.32400
H585        H  0.45066662  0.05585517  0.54142041     0.28900
H586        H  0.38851310  0.91609012  0.58135101     0.28900
H587        H  0.45715021  0.94581528  0.54402879     0.19500
H588        H  0.38664770  0.02143076  0.57052676     0.19500
C589        C  0.98622067  0.58383189  0.44421665    -0.06300
C590        C  0.96129215  0.58341372  0.42743353    -0.17400
C591        C  0.95500153  0.60563664  0.40719439     0.10900
C592        C  0.97428376  0.62906495  0.40254487    -0.06200
C593        C  0.99963905  0.62934506  0.41859971    -0.17500
C594        C  0.00589121  0.60706818  0.43916478     0.10900
S595        S  0.92081767  0.60376346  0.38979652    -0.32400
S596        S  0.03860396  0.61046563  0.45899870    -0.32400
H597        H  0.04942973  0.58384715  0.44861214     0.28900
H598        H  0.91604839  0.63415164  0.38945702     0.28900
H599        H  0.94590592  0.56594471  0.43064785     0.19500
H600        H  0.01456634  0.64718573  0.41517378     0.19500
C601        C  0.00525604  0.46005182  0.44329291    -0.06300
C602        C  0.98686412  0.43569722  0.44150485    -0.17400
C603        C  0.99140165  0.41348525  0.42115892     0.10900
C604        C  0.01558566  0.41485482  0.40295800    -0.06200
C605        C  0.03332757  0.43959543  0.40419558    -0.17500
C606        C  0.02806628  0.46236930  0.42336671     0.10900
S607        S  0.96521674  0.38473054  0.41896864    -0.32400
S608        S  0.05044710  0.49440967  0.42008746    -0.32400
H609        H  0.02823911  0.51454912  0.42444193     0.28900
H610        H  0.97120799  0.37705680  0.39019217     0.28900
H611        H  0.96884079  0.43388911  0.45608698     0.19500
H612        H  0.05142960  0.44126675  0.38970784     0.19500
C613        C  0.98158754  0.57919478  0.56975476    -0.06300
C614        C  0.95541263  0.57795190  0.58450008    -0.17400
C615        C  0.94837263  0.59801702  0.60594020     0.10900
C616        C  0.96795440  0.62009517  0.61360661    -0.06200
C617        C  0.99417966  0.62154081  0.59918341    -0.17500
C618        C  0.00131276  0.60133880  0.57763146     0.10900
S619        S  0.91325891  0.59511341  0.62139371    -0.32400
S620        S  0.03542319  0.60585054  0.56047964    -0.32400
H621        H  0.04530821  0.57848410  0.57084450     0.28900
H622        H  0.90967161  0.62518638  0.62629380     0.28900
H623        H  0.93988096  0.56137668  0.57902102     0.19500
H624        H  0.00923627  0.63847167  0.60492816     0.19500
C625        C  0.00011439  0.45514784  0.56701706    -0.06300
C626        C  0.97717677  0.45063243  0.58619308    -0.17400
C627        C  0.97842755  0.42944574  0.60865398     0.10900
C628        C  0.00337852  0.41279613  0.61266189    -0.06200
C629        C  0.02598269  0.41661416  0.59308485    -0.17500
C630        C  0.02445237  0.43707959  0.57008447     0.10900
S631        S  0.94739742  0.42229329  0.63068505    -0.32400
S632        S  0.05346921  0.43764397  0.54449796    -0.32400
H633        H  0.03603417  0.44137523  0.51989597     0.28900
H634        H  0.93108147  0.44606655  0.62027007     0.28900
H635        H  0.95816294  0.46375414  0.58354073     0.19500
H636        H  0.04475464  0.40304509  0.59549161     0.19500
C637        C  0.48987570  0.05895050  0.19372102    -0.06300
C638        C  0.49602764  0.08806181  0.20093568    -0.17400
C639        C  0.49128876  0.11134292  0.18150753     0.10900
C640        C  0.47722206  0.10642787  0.15478936    -0.06200
C641        C  0.47024133  0.07747043  0.14770349    -0.17500
C642        C  0.47741379  0.05375188  0.16622476     0.10900
S643        S  0.50578279  0.14639267  0.19169392    -0.32400
S644        S  0.47268536  0.01763446  0.15208281    -0.32400
H645        H  0.50105823  0.01000377  0.15796407     0.28900
H646        H  0.51374727  0.15484256  0.16331724     0.28900
H647        H  0.50570929  0.09279657  0.22166347     0.19500
H648        H  0.45959558  0.07310491  0.12742081     0.19500
C649        C  0.49924441  0.95888755  0.19341924    -0.06300
C650        C  0.52206874  0.95379513  0.17452614    -0.17400
C651        C  0.52281603  0.92927675  0.15693863     0.10900
C652        C  0.49930661  0.91008722  0.15638426    -0.06200
C653        C  0.47547613  0.91623001  0.17371668    -0.17500
C654        C  0.47525805  0.94031422  0.19244446     0.10900
S655        S  0.55594056  0.92224329  0.13887013    -0.32400
S656        S  0.44570301  0.94504738  0.21691268    -0.32400
H657        H  0.42721379  0.92529496  0.20331055     0.28900
H658        H  0.55514397  0.89157507  0.14246253     0.28900
H659        H  0.54048500  0.96811081  0.17489025     0.19500
H660        H  0.45773310  0.90106666  0.17382280     0.19500
C661        C  0.40382380  0.00265808  0.30841209    -0.06300
C662        C  0.42554467  0.98223942  0.31339855    -0.17400
C663        C  0.44937723  0.98130910  0.29528047     0.10900
C664        C  0.45210605  0.00190010  0.27199175    -0.06200
C665        C  0.43022384  0.02200412  0.26675141    -0.17500
C666        C  0.40622444  0.02271890  0.28467468     0.10900
S667        S  0.47483659  0.95245046  0.30237767    -0.32400
S668        S  0.37990254  0.05036318  0.27629151    -0.32400
H669        H  0.36877134  0.05263643  0.30442386     0.28900
H670        H  0.48400284  0.94991799  0.27347648     0.28900
H671        H  0.42334928  0.96603598  0.33075404     0.19500
H672        H  0.43235182  0.03805151  0.24923841     0.19500
C673        C  0.55707584  0.01531556  0.26830888    -0.06300
C674        C  0.58059402  0.99650926  0.26522627    -0.17400
C675        C  0.60444854  0.99863987  0.28291632     0.10900
C676        C  0.60518785  0.01999264  0.30467762    -0.06200
C677        C  0.58245562  0.03931604  0.30765980    -0.17500
C678        C  0.55879258  0.03786279  0.28932168     0.10900
S679        S  0.63328850  0.97346403  0.27590508    -0.32400
S680        S  0.53159530  0.06574629  0.29261312    -0.32400
H681        H  0.54360064  0.08083067  0.31599423     0.28900
H682        H  0.64711183  0.97529191  0.30274331     0.28900
H683        H  0.58134894  0.98012350  0.24875969     0.19500
H684        H  0.58397336  0.05648225  0.32354571     0.19500
C685        C  0.47892569  0.06892038  0.04104000    -0.06300
C686        C  0.50205768  0.07430263  0.05974604    -0.17400
C687        C  0.50064106  0.09566736  0.08148359     0.10900
C688        C  0.47535067  0.11183519  0.08521175    -0.06200
C689        C  0.45235381  0.10644740  0.06672006    -0.17500
C690        C  0.45390116  0.08581048  0.04464378     0.10900
S691        S  0.53178777  0.10138081  0.10342416    -0.32400
S692        S  0.42352070  0.08347882  0.02104183    -0.32400
H693        H  0.44011222  0.08325498  0.99565527     0.28900
H694        H  0.52522333  0.13005052  0.11185617     0.28900
H695        H  0.52143541  0.06172160  0.05751630     0.19500
H696        H  0.43303228  0.11905075  0.06922505     0.19500
C697        C  0.47863681  0.09589029  0.86339418    -0.06300
C698        C  0.45608289  0.09545383  0.88330128    -0.17400
C699        C  0.45650136  0.07746755  0.90826407     0.10900
C700        C  0.48021865  0.05910972  0.91376408    -0.06200
C701        C  0.50309871  0.05991270  0.89391206    -0.17500
C702        C  0.50264414  0.07821884  0.86902058     0.10900
S703        S  0.42673811  0.07917324  0.93296830    -0.32400
S704        S  0.53353057  0.07869153  0.84584834    -0.32400
H705        H  0.52959020  0.10723959  0.83456218     0.28900
H706        H  0.41549950  0.10582939  0.92227293     0.28900
H707        H  0.43781528  0.10921607  0.87891024     0.19500
H708        H  0.52155073  0.04620559  0.89780934     0.19500
C709        C  0.49911142  0.89761567  0.09043037    -0.06300
C710        C  0.47266169  0.91162249  0.08785171    -0.17400
C711        C  0.46784675  0.93383693  0.06682915     0.10900
C712        C  0.49031801  0.94264828  0.04805085    -0.06200
C713        C  0.51673870  0.92849745  0.05086219    -0.17500
C714        C  0.52135524  0.90619996  0.07159311     0.10900
S715        S  0.43337845  0.95128395  0.06543594    -0.32400
S716        S  0.55627777  0.89027450  0.07454281    -0.32400
H717        H  0.56824785  0.90384002  0.04974951     0.28900
H718        H  0.41952990  0.93208737  0.08508355     0.28900
H719        H  0.45587257  0.90521319  0.10274142     0.19500
H720        H  0.53404102  0.93494122  0.03662641     0.19500
C721        C  0.49020397  0.93515447  0.92751304    -0.06300
C722        C  0.51537846  0.91866077  0.92823653    -0.17400
C723        C  0.52012409  0.89566519  0.90910089     0.10900
C724        C  0.49881561  0.88779356  0.88899166    -0.06200
C725        C  0.47345222  0.90400860  0.88843481    -0.17500
C726        C  0.46892739  0.92745606  0.90724410     0.10900
S727        S  0.55485812  0.87943946  0.91032114    -0.32400
S728        S  0.43647362  0.94785095  0.90281026    -0.32400
H729        H  0.42593695  0.93870366  0.93009818     0.28900
H730        H  0.55536899  0.87141207  0.88117639     0.28900
H731        H  0.53202345  0.92422282  0.94344045     0.19500
H732        H  0.45710503  0.89847554  0.87291135     0.19500
C733        C  0.47957654  0.21193182  0.02055552    -0.06300
C734        C  0.45294113  0.21299572  0.03407929    -0.17400
C735        C  0.44692882  0.19573352  0.05873511     0.10900
C736        C  0.46838098  0.17775911  0.07108098    -0.06200
C737        C  0.49513264  0.17683783  0.05765336    -0.17500
C738        C  0.50091181  0.19339949  0.03241113     0.10900
S739        S  0.41093250  0.19626751  0.07222307    -0.32400
S740        S  0.53588601  0.18946344  0.01666444    -0.32400
H741        H  0.53414363  0.21148771  0.99517503     0.28900
H742        H  0.41095941  0.16729229  0.08320458     0.28900
H743        H  0.43612470  0.22606525  0.02431282     0.19500
H744        H  0.51183321  0.16344919  0.06715658     0.19500
C745        C  0.47818620  0.20246367  0.91318801    -0.06300
C746        C  0.45319800  0.20050292  0.89627326    -0.17400
C747        C  0.45057060  0.18091019  0.87365518     0.10900
C748        C  0.47338200  0.16244130  0.86684029    -0.06200
C749        C  0.49781962  0.16269695  0.88414475    -0.17500
C750        C  0.50038732  0.18210480  0.90744921     0.10900
S751        S  0.41694858  0.18019039  0.85470291    -0.32400
S752        S  0.53201805  0.18008275  0.92971015    -0.32400
H753        H  0.54480803  0.15618463  0.91589377     0.28900
H754        H  0.41774183  0.15020826  0.84807081     0.28900
H755        H  0.43450652  0.21310525  0.90061412     0.19500
H756        H  0.51515605  0.14811329  0.87888738     0.19500
C757        C  0.53292029  0.28158166  0.96887969    -0.06300
C758        C  0.54678781  0.27784772  0.99557609    -0.17400
C759        C  0.57067375  0.29453182  0.00279667     0.10900
C760        C  0.57975194  0.31765462  0.98395122    -0.06200
C761        C  0.56524386  0.32221842  0.95765864    -0.17500
C762        C  0.54246505  0.30398121  0.94955367     0.10900
S763        S  0.58877804  0.28372446  0.03594095    -0.32400
S764        S  0.52617957  0.30942845  0.91446575    -0.32400
H765        H  0.54349279  0.33287217  0.90495451     0.28900
H766        H  0.61038484  0.30484645  0.03615473     0.28900
H767        H  0.53965834  0.26081982  0.01057869     0.19500
H768        H  0.57291769  0.33905594  0.94273516     0.19500
C769        C  0.43751013  0.29020254  0.96694704    -0.06300
C770        C  0.42673181  0.29731722  0.99439535    -0.17400
C771        C  0.40487953  0.31813423  0.99739055     0.10900
C772        C  0.39307326  0.33176041  0.97232806    -0.06200
C773        C  0.40417746  0.32493668  0.94517952    -0.17500
C774        C  0.42709493  0.30594886  0.94225592     0.10900
S775        S  0.39134036  0.32401135  0.03346857    -0.32400
S776        S  0.44182560  0.30371580  0.90614945    -0.32400
H777        H  0.46914820  0.29610100  0.91544841     0.28900
H778        H  0.37710103  0.35043852  0.02761503     0.28900
H779        H  0.43440825  0.28565921  0.01351503     0.19500
H780        H  0.39438710  0.33387938  0.92573296     0.19500
C781        C  0.42728839  0.44025049  0.99018947    -0.06300
C782        C  0.42396963  0.42665959  0.96326878    -0.17400
C783        C  0.40214361  0.40636405  0.95852271     0.10900
C784        C  0.38367789  0.39828903  0.98149995    -0.06200
C785        C  0.38640493  0.41216776  0.00820498    -0.17500
C786        C  0.40742795  0.43349831  0.01259750     0.10900
S787        S  0.39610054  0.39348288  0.92223662    -0.32400
S788        S  0.40636200  0.45244223  0.04655136    -0.32400
H789        H  0.41039717  0.48037801  0.03366918     0.28900
H790        H  0.41863120  0.40866590  0.90861819     0.28900
H791        H  0.43839382  0.43217579  0.94569207     0.19500
H792        H  0.37153539  0.40683352  0.02547465     0.19500
C793        C  0.43578280  0.56283443  0.00261643    -0.06300
C794        C  0.41551202  0.56475851  0.98022868    -0.17400
C795        C  0.39375199  0.58592737  0.98042472     0.10900
C796        C  0.39189260  0.60564130  0.00365394    -0.06200
C797        C  0.41236594  0.60402673  0.02577870    -0.17500
C798        C  0.43438445  0.58329777  0.02532485     0.10900
S799        S  0.36942756  0.58846522  0.95025338    -0.32400
S800        S  0.46086621  0.58528175  0.05345443    -0.32400
H801        H  0.48391839  0.57878227  0.03516778     0.28900
H802        H  0.38045525  0.56490213  0.93448934     0.28900
H803        H  0.41662945  0.54940549  0.96260070     0.19500
H804        H  0.41137448  0.61944184  0.04338023     0.19500
C805        C  0.60852316  0.58718294  0.01863647    -0.06300
C806        C  0.59240122  0.59058693  0.99318028    -0.17400
C807        C  0.56771273  0.57402781  0.98855801     0.10900
C808        C  0.55948256  0.55215342  0.00912001    -0.06200
C809        C  0.57583849  0.54863169  0.03444705    -0.17500
C810        C  0.59958595  0.56623705  0.03979860     0.10900
S811        S  0.54666505  0.58358939  0.95717647    -0.32400
S812        S  0.61522397  0.56246862  0.07535724    -0.32400
H813        H  0.62850313  0.59000413  0.07597784     0.28900
H814        H  0.52060955  0.58231321  0.97222417     0.28900
H815        H  0.59851409  0.60724264  0.97731255     0.19500
H816        H  0.56968451  0.53240734  0.05074731     0.19500
C817        C  0.55126534  0.43120000  0.99516373    -0.06300
C818        C  0.54941833  0.40719484  0.01455120    -0.17400
C819        C  0.56966290  0.38460795  0.01461438     0.10900
C820        C  0.59215720  0.38508639  0.99408874    -0.06200
C821        C  0.59427013  0.40935839  0.97499469    -0.17500
C822        C  0.57450824  0.43254597  0.97559906     0.10900
S823        S  0.56627374  0.35715935  0.04286133    -0.32400
S824        S  0.58027062  0.46436846  0.95238628    -0.32400
H825        H  0.60791740  0.45703015  0.94339981     0.28900
H826        H  0.59549389  0.35207256  0.04540370     0.28900
H827        H  0.53219409  0.40620061  0.03018109     0.19500
H828        H  0.61151879  0.41002889  0.95944753     0.19500
C829        C  0.03885101  0.52098692  0.22490421    -0.06300
C830        C  0.03367021  0.50419310  0.20025079    -0.17400
C831        C  0.05564598  0.49437576  0.18249898     0.10900
C832        C  0.08361863  0.50454563  0.18701564    -0.06200
C833        C  0.08827470  0.52433221  0.20970912    -0.17500
C834        C  0.06681645  0.53137133  0.22943688     0.10900
S835        S  0.04672189  0.46573781  0.15797197    -0.32400
S836        S  0.07765158  0.55044369  0.26145445    -0.32400
H837        H  0.06269535  0.53136934  0.28033997     0.28900
H838        H  0.06950917  0.44799553  0.16717223     0.28900
H839        H  0.01234465  0.49698515  0.19563155     0.19500
H840        H  0.10958294  0.53241544  0.21371397     0.19500
C841        C  0.94222567  0.50009605  0.22483043    -0.06300
C842        C  0.95138856  0.47997086  0.20381154    -0.17400
C843        C  0.93240523  0.46602672  0.18504740     0.10900
C844        C  0.90333577  0.47327906  0.18597881    -0.06200
C845        C  0.89401802  0.49331754  0.20666670    -0.17500
C846        C  0.91247849  0.50543170  0.22689566     0.10900
S847        S  0.94654367  0.43794289  0.16202612    -0.32400
S848        S  0.89529434  0.52377638  0.25660269    -0.32400
H849        H  0.91372283  0.51265696  0.27806486     0.28900
H850        H  0.92184202  0.42061019  0.16131037     0.28900
H851        H  0.97338702  0.47369272  0.20242478     0.19500
H852        H  0.87149463  0.49806595  0.20842067     0.19500
C853        C  0.00047275  0.47088267  0.30181838    -0.06300
C854        C  0.02851514  0.46102745  0.29922602    -0.17400
C855        C  0.03875809  0.43807192  0.31681137     0.10900
C856        C  0.02036263  0.42410733  0.33711038    -0.06200
C857        C  0.99217173  0.43386188  0.33939183    -0.17500
C858        C  0.98203617  0.45689312  0.32185693     0.10900
S859        S  0.07580676  0.42871407  0.31314467    -0.32400
S860        S  0.94512066  0.46672086  0.32501881    -0.32400
H861        H  0.94170196  0.47272343  0.29519721     0.28900
H862        H  0.07976469  0.42066507  0.34246400     0.28900
H863        H  0.04286632  0.47209579  0.28419669     0.19500
H864        H  0.97764685  0.42281500  0.35422437     0.19500
C865        C  0.96563787  0.62428896  0.33566502    -0.06300
C866        C  0.99169219  0.60960169  0.33714109    -0.17400
C867        C  0.99811169  0.58652371  0.31843681     0.10900
C868        C  0.97786623  0.57755018  0.29731840    -0.06200
C869        C  0.95180768  0.59280707  0.29602821    -0.17500
C870        C  0.94551059  0.61571222  0.31471385     0.10900
S871        S  0.03213191  0.56846044  0.32268520    -0.32400
S872        S  0.91081927  0.63233433  0.31067690    -0.32400
H873        H  0.90798862  0.64227941  0.33913378     0.28900
H874        H  0.04270598  0.58554385  0.34540416     0.28900
H875        H  0.00736886  0.61675548  0.35267649     0.19500
H876        H  0.93525647  0.58679309  0.28121878     0.19500
C877        C  0.05741345  0.50135731  0.07286043    -0.06300
C878        C  0.06965709  0.47422867  0.08084318    -0.17400
C879        C  0.08903771  0.47139201  0.10378751     0.10900
C880        C  0.09735018  0.49650045  0.11944077    -0.06200
C881        C  0.08591761  0.52380179  0.11127569    -0.17500
C882        C  0.06646067  0.52663025  0.08813411     0.10900
S883        S  0.09961886  0.43429627  0.11338982    -0.32400
S884        S  0.05442108  0.56318100  0.07937132    -0.32400
H885        H  0.06121058  0.56093693  0.04972819     0.28900
H886        H  0.11337936  0.43996688  0.13964136     0.28900
H887        H  0.06332033  0.45448958  0.06979149     0.19500
H888        H  0.09229588  0.54308204  0.12306454     0.19500
C889        C  0.10187470  0.52214280  0.90837249    -0.06300
C890        C  0.08141458  0.54421365  0.91207155    -0.17400
C891        C  0.05883765  0.54096558  0.93189205     0.10900
C892        C  0.05656149  0.51509409  0.94928810    -0.06200
C893        C  0.07714460  0.49301678  0.94549092    -0.17500
C894        C  0.09940779  0.49604880  0.92526393     0.10900
S895        S  0.03311771  0.57017022  0.93278450    -0.32400
S896        S  0.12307947  0.46521708  0.92179559    -0.32400
H897        H  0.13405049  0.47262963  0.89438113     0.28900
H898        H  0.00948597  0.55119627  0.93297256     0.28900
H899        H  0.08298476  0.56418930  0.89909381     0.19500
H900        H  0.07589594  0.47295797  0.95840008     0.19500
C901        C  0.89699574  0.46631667  0.11781625    -0.06300
C902        C  0.90944436  0.49435104  0.11754464    -0.17400
C903        C  0.92984055  0.50263059  0.09650613     0.10900
C904        C  0.93731742  0.48297552  0.07414991    -0.06200
C905        C  0.92472981  0.45495281  0.07465195    -0.17500
C906        C  0.90526581  0.44630908  0.09630668     0.10900
S907        S  0.94680793  0.53771199  0.10074504    -0.32400
S908        S  0.89298269  0.40878398  0.09762844    -0.32400
H909        H  0.90578040  0.39967115  0.07171102     0.28900
H910        H  0.97439037  0.52684062  0.09595905     0.28900
H911        H  0.90369955  0.50965463  0.13427620     0.19500
H912        H  0.93054587  0.43943017  0.05817167     0.19500
C913        C  0.88984354  0.50033855  0.90575410    -0.06300
C914        C  0.90964205  0.47733941  0.90673055    -0.17400
C915        C  0.93193807  0.47661356  0.92706490     0.10900
C916        C  0.93437304  0.49901216  0.94802489    -0.06200
C917        C  0.91455493  0.52219446  0.94670263    -0.17500
C918        C  0.89289860  0.52334726  0.92566168     0.10900
S919        S  0.95727781  0.44726548  0.92378753    -0.32400
S920        S  0.87072456  0.55551923  0.92443061    -0.32400
H921        H  0.86621158  0.55543078  0.89427380     0.28900
H922        H  0.98110321  0.46577605  0.92623642     0.28900
H923        H  0.90799645  0.45996735  0.89112631     0.19500
H924        H  0.91608832  0.53991240  0.96199521     0.19500
C925        C  0.16406171  0.49515161  0.11761730    -0.06300
C926        C  0.16366293  0.47534502  0.09500488    -0.17400
C927        C  0.18346869  0.47683874  0.07241850     0.10900
C928        C  0.20526397  0.49868414  0.07243590    -0.06200
C929        C  0.20592574  0.51824064  0.09577719    -0.17500
C930        C  0.18551517  0.51689373  0.11797529     0.10900
S931        S  0.17942733  0.45094452  0.04331650    -0.32400
S932        S  0.18788210  0.54382530  0.14613097    -0.32400
H933        H  0.15853407  0.54498710  0.15186565     0.28900
H934        H  0.15759928  0.43368822  0.05565910     0.28900
H935        H  0.14817201  0.45807717  0.09529211     0.19500
H936        H  0.22172749  0.53531965  0.09680249     0.19500
C937        C  0.20599677  0.51578560  0.96632394    -0.06300
C938        C  0.18609603  0.53888683  0.96551705    -0.17400
C939        C  0.16777359  0.54324083  0.94189382     0.10900
C940        C  0.16883908  0.52377983  0.91849150    -0.06200
C941        C  0.18905969  0.50104531  0.91897494    -0.17500
C942        C  0.20743961  0.49665957  0.94266969     0.10900
S943        S  0.14430672  0.57449513  0.94275820    -0.32400
S944        S  0.23145506  0.46577238  0.94302550    -0.32400
H945        H  0.22246425  0.45360969  0.91673341     0.28900
H946        H  0.14299059  0.57957710  0.91263250     0.28900
H947        H  0.18482008  0.55374377  0.98358698     0.19500
H948        H  0.19032366  0.48661958  0.90059048     0.19500
C949        C  0.28637174  0.54978906  0.01431627    -0.06300
C950        C  0.28245732  0.57012439  0.99160302    -0.17400
C951        C  0.30143279  0.59342936  0.98707818     0.10900
C952        C  0.32518194  0.59668485  0.00569150    -0.06200
C953        C  0.33013583  0.57519112  0.02727732    -0.17500
C954        C  0.31112526  0.55169824  0.03163596     0.10900
S955        S  0.29338190  0.61872520  0.95762926    -0.32400
S956        S  0.31942432  0.52512446  0.05978278    -0.32400
H957        H  0.30628456  0.50125128  0.04627813     0.28900
H958        H  0.32105982  0.62967989  0.95369289     0.28900
H959        H  0.26381894  0.56847355  0.97789992     0.19500
H960        H  0.34819292  0.57740401  0.04165966     0.19500
C961        C  0.27706222  0.45134683  0.00494631    -0.06300
C962        C  0.30159434  0.45828472  0.98860936    -0.17400
C963        C  0.31999944  0.43634484  0.97852103     0.10900
C964        C  0.31618997  0.40681150  0.98791791    -0.06200
C965        C  0.29258714  0.40037085  0.00567109    -0.17500
C966        C  0.27218033  0.42142322  0.01218620     0.10900
S967        S  0.34505208  0.44741998  0.95102067    -0.32400
S968        S  0.23877451  0.40732252  0.02544512    -0.32400
H969        H  0.22283559  0.42568347  0.00678783     0.28900
H970        H  0.34162242  0.42174569  0.93492944     0.28900
H971        H  0.30595109  0.48083158  0.98237163     0.19500
H972        H  0.28859049  0.37793985  0.01272912     0.19500
C973        C  0.05775868  0.80313395  0.51292249    -0.06300
C974        C  0.07942586  0.79963473  0.53380618    -0.17400
C975        C  0.10411367  0.81686676  0.53296617     0.10900
C976        C  0.10793116  0.83794023  0.51043089    -0.06200
C977        C  0.08668260  0.84161749  0.48968547    -0.17500
C978        C  0.06171258  0.82505151  0.49071857     0.10900
S979        S  0.12969499  0.81094893  0.56163989    -0.32400
S980        S  0.03544526  0.83293737  0.46304678    -0.32400
H981        H  0.04629514  0.86031344  0.45374460     0.28900
H982        H  0.14084440  0.83954456  0.56114447     0.28900
H983        H  0.07755440  0.78375486  0.55127193     0.19500
H984        H  0.09012280  0.85691017  0.47180322     0.19500
C985        C  0.95247580  0.81027200  0.51385656    -0.06300
C986        C  0.94910991  0.83212987  0.53478600    -0.17400
C987        C  0.92633320  0.85180678  0.53364987     0.10900
C988        C  0.90663569  0.84999025  0.51071320    -0.06200
C989        C  0.90982974  0.82810052  0.48996274    -0.17500
C990        C  0.93255906  0.80836123  0.49110049     0.10900
S991        S  0.92341403  0.87781742  0.56257579    -0.32400
S992        S  0.93639569  0.78208726  0.46251968    -0.32400
H993        H  0.91315837  0.79141228  0.44555584     0.28900
H994        H  0.89378851  0.88135048  0.56142793     0.28900
H995        H  0.96437451  0.83377977  0.55229425     0.19500
H996        H  0.89431407  0.82661644  0.47269611     0.19500
C997        C  0.97469013  0.69737086  0.41491450    -0.06300
C998        C  0.99177788  0.72221892  0.41000909    -0.17400
C999        C  0.99860156  0.74133835  0.43218937     0.10900
C1000       C  0.99110965  0.73418332  0.46124213    -0.06200
C1001       C  0.97470512  0.70878823  0.46632517    -0.17500
C1002       C  0.96544911  0.69108526  0.44355328     0.10900
S1003       S  0.01314224  0.77617073  0.42077010    -0.32400
S1004       S  0.93992328  0.66291657  0.45243928    -0.32400
H1005       H  0.92385178  0.66740364  0.42709401     0.28900
H1006       H  0.99562204  0.79208778  0.43955240     0.28900
H1007       H  0.99838082  0.72799878  0.38809254     0.19500
H1008       H  0.96800090  0.70314011  0.48800204     0.19500
C1009       C  0.96825180  0.68949242  0.60735796    -0.06300
C1010       C  0.98562209  0.71349061  0.61432723    -0.17400
C1011       C  0.99451676  0.73406653  0.59331349     0.10900
C1012       C  0.98833862  0.72949127  0.56361298    -0.06200
C1013       C  0.97093081  0.70546380  0.55670685    -0.17500
C1014       C  0.95999109  0.68627414  0.57812347     0.10900
S1015       S  0.01069921  0.76709503  0.60668585    -0.32400
S1016       S  0.93348753  0.66036516  0.56688619    -0.32400
H1017       H  0.91669428  0.66350793  0.59186655     0.28900
H1018       H  0.99699828  0.78590114  0.58660531     0.28900
H1019       H  0.99128297  0.71711009  0.63678132     0.19500
H1020       H  0.96477935  0.70200614  0.53458497     0.19500
C1021       C  0.79258915  0.05999699  0.48330060    -0.06300
C1022       C  0.80899900  0.06049455  0.50876405    -0.17400
C1023       C  0.83139445  0.08036290  0.51187412     0.10900
C1024       C  0.83824237  0.09976173  0.48873872    -0.06200
C1025       C  0.82410075  0.09682885  0.46212606    -0.17500
C1026       C  0.80143711  0.07704051  0.45906268     0.10900
S1027       S  0.84858219  0.08148515  0.54674470    -0.32400
S1028       S  0.78259422  0.07603751  0.42506145    -0.32400
H1029       H  0.80155710  0.09388513  0.40903058     0.28900
H1030       H  0.84951934  0.11220626  0.54844131     0.28900
H1031       H  0.80326702  0.04642070  0.52705879     0.19500
H1032       H  0.82922347  0.11197308  0.44450730     0.19500
C1033       C  0.79246698  0.97188524  0.48623101    -0.06300
C1034       C  0.80572419  0.96956131  0.51355429    -0.17400
C1035       C  0.82632558  0.94839077  0.51942562     0.10900
C1036       C  0.83633950  0.93088969  0.49666616    -0.06200
C1037       C  0.82593008  0.93581727  0.46843333    -0.17500
C1038       C  0.80375607  0.95571523  0.46297677     0.10900
S1039       S  0.83612738  0.94326334  0.55710974    -0.32400
S1040       S  0.78993302  0.95736469  0.42651510    -0.32400
H1041       H  0.76187268  0.96346281  0.43414929     0.28900
H1042       H  0.84697225  0.91468154  0.55579021     0.28900
H1043       H  0.79829922  0.98280927  0.53133692     0.19500
H1044       H  0.83323443  0.92200717  0.45101894     0.19500
C1045       C  0.71606996  0.01826459  0.42748658    -0.06300
C1046       C  0.71361940  0.04646963  0.41519248    -0.17400
C1047       C  0.69499784  0.05221302  0.39226034     0.10900
C1048       C  0.67826530  0.02923983  0.38135737    -0.06200
C1049       C  0.68044757  0.00109235  0.39365334    -0.17500
C1050       C  0.69890656  0.99531252  0.41671768     0.10900
S1051       S  0.69263015  0.08952899  0.37875921    -0.32400
S1052       S  0.69839573  0.95832163  0.43148426    -0.32400
H1053       H  0.71797577  0.96164148  0.45399086     0.28900
H1054       H  0.66453701  0.08764149  0.36857798     0.28900
H1055       H  0.72466171  0.06464006  0.42491120     0.19500
H1056       H  0.66799404  0.98331320  0.38489156     0.19500
C1057       C  0.66909014  0.00599613  0.58134790    -0.06300
C1058       C  0.66998842  0.98476903  0.56002220    -0.17400
C1059       C  0.68809242  0.98775525  0.53619531     0.10900
C1060       C  0.70615716  0.01284910  0.53361300    -0.06200
C1061       C  0.70362719  0.03496602  0.55448774    -0.17500
C1062       C  0.68534750  0.03173954  0.57821359     0.10900
S1063       S  0.68821651  0.95842894  0.51014420    -0.32400
S1064       S  0.68373693  0.06118768  0.60383600    -0.32400
H1065       H  0.65589692  0.05542224  0.61352898     0.28900
H1066       H  0.66530794  0.94211847  0.52165034     0.28900
H1067       H  0.65738617  0.96504550  0.56285946     0.19500
H1068       H  0.71557811  0.05507530  0.55281227     0.19500
C1069       C  0.48699682  0.03273794  0.75770606    -0.06300
C1070       C  0.47101191  0.02968378  0.78351647    -0.17400
C1071       C  0.46566932  0.05379072  0.80143211     0.10900
C1072       C  0.47916954  0.08096031  0.79529421    -0.06200
C1073       C  0.49623773  0.08339404  0.77043992    -0.17500
C1074       C  0.49843739  0.06081359  0.75073632     0.10900
S1075       S  0.43964125  0.04876025  0.82974553    -0.32400
S1076       S  0.51248006  0.07148009  0.71572764    -0.32400
H1077       H  0.49233529  0.05501396  0.70064149     0.28900
H1078       H  0.42893185  0.07752312  0.82802005     0.28900
H1079       H  0.46174492  0.00868967  0.78944994     0.19500
H1080       H  0.50611638  0.10425765  0.76486695     0.19500
C1081       C  0.48884669  0.93657517  0.77532407    -0.06300
C1082       C  0.51111778  0.93826007  0.79553938    -0.17400
C1083       C  0.51407576  0.91739860  0.81800817     0.10900
C1084       C  0.49376558  0.89476577  0.82129797    -0.06200
C1085       C  0.46997737  0.89488159  0.80281007    -0.17500
C1086       C  0.46735635  0.91543621  0.77983482     0.10900
S1087       S  0.54616142  0.91857845  0.83900274    -0.32400
S1088       S  0.43787152  0.91285522  0.75511777    -0.32400
H1089       H  0.42568311  0.88727281  0.76730075     0.28900
H1090       H  0.55319611  0.88927370  0.83320000     0.28900
H1091       H  0.52769448  0.95454017  0.79229678     0.19500
H1092       H  0.45435896  0.87754592  0.80529078     0.19500
C1093       C  0.40103775  0.96099241  0.64435592    -0.06300
C1094       C  0.41059752  0.98958782  0.64957556    -0.17400
C1095       C  0.42952285  0.99528260  0.67222303     0.10900
C1096       C  0.44018132  0.97187069  0.68942262    -0.06200
C1097       C  0.43045587  0.94340486  0.68431442    -0.17500
C1098       C  0.41047909  0.93772757  0.66271484     0.10900
S1099       S  0.44003333  0.03273406  0.67768053    -0.32400
S1100       S  0.39891261  0.90005089  0.65983374    -0.32400
H1101       H  0.38676405  0.90174919  0.63217257     0.28900
H1102       H  0.44399298  0.02928984  0.70777973     0.28900
H1103       H  0.40250665  0.00776805  0.63655786     0.19500
H1104       H  0.43982319  0.92508883  0.69603168     0.19500
C1105       C  0.59423133  0.97616838  0.65161004    -0.06300
C1106       C  0.57285976  0.99699439  0.64767927    -0.17400
C1107       C  0.54808201  0.99608127  0.66430711     0.10900
C1108       C  0.54485341  0.97428674  0.68668714    -0.06200
C1109       C  0.56589298  0.95244882  0.68930409    -0.17500
C1110       C  0.59020672  0.95298467  0.67188854     0.10900
S1111       S  0.52139011  0.02365158  0.65647630    -0.32400
S1112       S  0.61528205  0.92336939  0.67684498    -0.32400
H1113       H  0.62707140  0.92512830  0.64886089     0.28900
H1114       H  0.53216833  0.03317861  0.62940715     0.28900
H1115       H  0.57621065  0.01508524  0.63255137     0.19500
H1116       H  0.56390889  0.93455366  0.70471270     0.19500
C1117       C  0.04906578  0.52573286  0.79994691    -0.06300
C1118       C  0.06400900  0.50053616  0.80959997    -0.17400
C1119       C  0.08619943  0.50201581  0.82961557     0.10900
C1120       C  0.09371109  0.52916313  0.84147461    -0.06200
C1121       C  0.07806961  0.55416307  0.83363840    -0.17500
C1122       C  0.05518537  0.55266312  0.81402128     0.10900
S1123       S  0.10377346  0.46813284  0.83936336    -0.32400
S1124       S  0.03324605  0.58494888  0.80907528    -0.32400
H1125       H  0.04894722  0.60387410  0.82676736     0.28900
H1126       H  0.13141229  0.47971548  0.84023206     0.28900
H1127       H  0.05813400  0.47898443  0.80232619     0.19500
H1128       H  0.08384728  0.57491287  0.84309363     0.19500
C1129       C  0.94508775  0.51311188  0.80023449    -0.06300
C1130       C  0.93356097  0.48509277  0.80484906    -0.17400
C1131       C  0.91034278  0.48044579  0.82334353     0.10900
C1132       C  0.89920360  0.50420645  0.83900394    -0.06200
C1133       C  0.91149824  0.53204428  0.83552355    -0.17500
C1134       C  0.93412567  0.53682536  0.81622484     0.10900
S1135       S  0.89609079  0.44365402  0.82557096    -0.32400
S1136       S  0.94829666  0.57358532  0.81352386    -0.32400
H1137       H  0.95982265  0.57123208  0.78559425     0.28900
H1138       H  0.87928853  0.44692268  0.85041252     0.28900
H1139       H  0.94343774  0.46640455  0.79494018     0.19500
H1140       H  0.90270123  0.55042656  0.84713177     0.19500
C1141       C  0.99739035  0.46756580  0.72166134    -0.06300
C1142       C  0.02125085  0.46489745  0.70329911    -0.17400
C1143       C  0.02333517  0.44247335  0.68290859     0.10900
C1144       C  0.00094362  0.42209488  0.68030494    -0.06200
C1145       C  0.97658195  0.42551250  0.69749665    -0.17500
C1146       C  0.97423045  0.44827151  0.71755330     0.10900
S1147       S  0.05585500  0.44016832  0.66228768    -0.32400
S1148       S  0.94222070  0.45073381  0.73877388    -0.32400
H1149       H  0.92603420  0.43042203  0.72313125     0.28900
H1150       H  0.05673040  0.40944038  0.66063760     0.28900
H1151       H  0.03901735  0.47981554  0.70553624     0.19500
H1152       H  0.95967137  0.40948463  0.69585755     0.19500
C1153       C  0.98193447  0.56289707  0.71878396    -0.06300
C1154       C  0.95363731  0.57248934  0.72001471    -0.17400
C1155       C  0.94336514  0.59441690  0.70106258     0.10900
C1156       C  0.96174607  0.60718664  0.67994211    -0.06200
C1157       C  0.98951273  0.59623600  0.67752562    -0.17500
C1158       C  0.99965685  0.57413182  0.69633841     0.10900
S1159       S  0.90681110  0.60539337  0.70590865    -0.32400
S1160       S  0.03528402  0.56113020  0.69018464    -0.32400
H1161       H  0.02975462  0.53219885  0.69953063     0.28900
H1162       H  0.90298795  0.61900558  0.67870577     0.28900
H1163       H  0.93958632  0.56358178  0.73661332     0.19500
H1164       H  0.00390987  0.60580361  0.66161660     0.19500
C1165       C  0.50959661  0.78514929  0.04179200    -0.06300
C1166       C  0.48312144  0.79232385  0.05387338    -0.17400
C1167       C  0.48059657  0.81428732  0.07468608     0.10900
C1168       C  0.50511913  0.82924566  0.08416657    -0.06200
C1169       C  0.53138614  0.82243117  0.07167500    -0.17500
C1170       C  0.53358847  0.80212277  0.04943416     0.10900
S1171       S  0.44590980  0.82028108  0.09019707    -0.32400
S1172       S  0.56729288  0.80003498  0.03092630    -0.32400
H1173       H  0.55518971  0.79450433  0.00362993     0.28900
H1174       H  0.45091548  0.84905824  0.09931846     0.28900
H1175       H  0.46434983  0.78013328  0.04787382     0.19500
H1176       H  0.55063284  0.83213833  0.07991420     0.19500
C1177       C  0.50718630  0.77658200  0.94743439    -0.06300
C1178       C  0.53292859  0.78627844  0.93491214    -0.17400
C1179       C  0.53373322  0.80576305  0.91120593     0.10900
C1180       C  0.50842184  0.81966437  0.90170224    -0.06200
C1181       C  0.48271267  0.81164929  0.91525730    -0.17500
C1182       C  0.48159113  0.78953741  0.93712563     0.10900
S1183       S  0.56789244  0.80942831  0.89335056    -0.32400
S1184       S  0.44719289  0.77571313  0.94824117    -0.32400
H1185       H  0.43080508  0.79803139  0.93506798     0.28900
H1186       H  0.55917425  0.82204697  0.86693292     0.28900
H1187       H  0.55293936  0.77746735  0.94264575     0.19500
H1188       H  0.46314929  0.82081776  0.90670487     0.19500
C1189       C  0.40264344  0.67297250  0.00615571    -0.06300
C1190       C  0.41201309  0.68810546  0.03067196    -0.17400
C1191       C  0.43744873  0.70421010  0.03024346     0.10900
C1192       C  0.45335408  0.70651271  0.00428817    -0.06200
C1193       C  0.44375778  0.69170302  0.97967269    -0.17500
C1194       C  0.41858170  0.67522523  0.98023011     0.10900
S1195       S  0.44877984  0.72028867  0.06378840    -0.32400
S1196       S  0.40780317  0.65820955  0.94697556    -0.32400
H1197       H  0.37837250  0.66063084  0.95161022     0.28900
H1198       H  0.47813364  0.71722106  0.05920920     0.28900
H1199       H  0.39971354  0.68676023  0.05055675     0.19500
H1200       H  0.45624734  0.69272208  0.95989235     0.19500
C1201       C  0.55942583  0.69510996  0.00495880    -0.06300
C1202       C  0.55701874  0.67269834  0.02644405    -0.17400
C1203       C  0.57941399  0.65364097  0.03329570     0.10900
C1204       C  0.60512449  0.65561943  0.01765944    -0.06200
C1205       C  0.60820224  0.67845018  0.99703337    -0.17500
C1206       C  0.58660802  0.69903832  0.99176327     0.10900
S1207       S  0.57466529  0.62987452  0.06446560    -0.32400
S1208       S  0.59734445  0.73121338  0.97124526    -0.32400
H1209       H  0.58320889  0.75087274  0.98936572     0.28900
H1210       H  0.60234357  0.63427865  0.07498898     0.28900
H1211       H  0.53792758  0.67093224  0.03949082     0.19500
H1212       H  0.62842855  0.68134742  0.98605019     0.19500
C1213       C  0.79193045  0.46021562  0.06565256    -0.06300
C1214       C  0.79393157  0.43249820  0.07958914    -0.17400
C1215       C  0.81418609  0.42662194  0.10110913     0.10900
C1216       C  0.83309656  0.44897261  0.10964900    -0.06200
C1217       C  0.83209185  0.47620966  0.09526381    -0.17500
C1218       C  0.81224646  0.48204465  0.07324701     0.10900
S1219       S  0.81461374  0.38982904  0.11643639    -0.32400
S1220       S  0.81367738  0.51763025  0.05508983    -0.32400
H1221       H  0.83721024  0.52898269  0.07000723     0.28900
H1222       H  0.84227805  0.39043418  0.12773348     0.28900
H1223       H  0.78037636  0.41457450  0.07357423     0.19500
H1224       H  0.84623608  0.49346908  0.10215346     0.19500
C1225       C  0.78528276  0.48322936  0.96126831    -0.06300
C1226       C  0.80284078  0.46091791  0.95048363    -0.17400
C1227       C  0.82176847  0.46618972  0.92752299     0.10900
C1228       C  0.82324652  0.49439166  0.91458843    -0.06200
C1229       C  0.80546832  0.51660726  0.92493208    -0.17500
C1230       C  0.78744713  0.51166234  0.94877129     0.10900
S1231       S  0.84337010  0.43602216  0.91570593    -0.32400
S1232       S  0.76989285  0.54304080  0.96360854    -0.32400
H1233       H  0.77547819  0.53532324  0.99271354     0.28900
H1234       H  0.84119169  0.44272181  0.88593591     0.28900
H1235       H  0.80232725  0.43928931  0.96063301     0.19500
H1236       H  0.80622653  0.53823775  0.91480634     0.19500
C1237       C  0.70581844  0.42998347  0.00354986    -0.06300
C1238       C  0.68595070  0.42371527  0.02566190    -0.17400
C1239       C  0.66327300  0.40421184  0.02137419     0.10900
C1240       C  0.65946647  0.39120429  0.99406649    -0.06200
C1241       C  0.67823961  0.39906917  0.97140733    -0.17500
C1242       C  0.70141905  0.41791131  0.97591294     0.10900
S1243       S  0.64172028  0.39456252  0.05233160    -0.32400
S1244       S  0.72606321  0.42343727  0.94636855    -0.32400
H1245       H  0.75050389  0.42164847  0.96382966     0.28900
H1246       H  0.64464119  0.36417540  0.04843266     0.28900
H1247       H  0.68894308  0.43295505  0.04694734     0.19500
H1248       H  0.67603390  0.38869813  0.95053527     0.19500
C1249       C  0.71150537  0.52253426  0.02257252    -0.06300
C1250       C  0.70359931  0.53754750  0.99687442    -0.17400
C1251       C  0.68477809  0.56145392  0.99714961     0.10900
C1252       C  0.67350117  0.57106750  0.02377368    -0.06200
C1253       C  0.68072235  0.55567156  0.04924713    -0.17500
C1254       C  0.69782062  0.53061520  0.04875950     0.10900
S1255       S  0.67821001  0.58031002  0.96306565    -0.32400
S1256       S  0.69912794  0.50914860  0.08199685    -0.32400
H1257       H  0.70030735  0.48198256  0.06804184     0.28900
H1258       H  0.65237133  0.59329179  0.97089721     0.28900
H1259       H  0.71264134  0.53131360  0.97634081     0.19500
H1260       H  0.67338422  0.56343152  0.06998017     0.19500
loop_ 
_geom_bond_atom_site_label_1 
_geom_bond_atom_site_label_2 
_geom_bond_distance 
_geom_bond_site_symmetry_2 
_ccdc_geom_bond_type 
C1            C2   1.540       .  S
C1            C7   1.515       .  S
C1            C5   1.552       .  S
C1         C1213   1.539       .  S
C2            H9   1.084       .  S
C2            C3   1.374       .  D
C3            C4   1.549   1_554  S
C3         C1249   1.505       .  S
C4            C8   1.558       .  S
C4            C6   1.542   1_556  S
C4           H10   1.109       .  S
C5           H11   1.082       .  S
C5            C6   1.371       .  D
C6         C1237   1.494       .  S
C7           H12   1.088       .  S
C7            C8   1.351   1_554  D
C8         C1225   1.486       .  S
C13          C14   1.545   1_554  S
C13          C19   1.530       .  S
C13          C17   1.534       .  S
C13        C1201   1.544       .  S
C14          H21   1.081       .  S
C14          C15   1.379       .  D
C15          C16   1.547       .  S
C15        C1177   1.511       .  S
C16          C20   1.553   1_556  S
C16          C18   1.537   1_556  S
C16          H22   1.104       .  S
C17          H23   1.086       .  S
C17          C18   1.366       .  D
C18        C1165   1.494       .  S
C19          H24   1.087       .  S
C19          C20   1.358       .  D
C20        C1192   1.482       .  S
C25          C26   1.549       .  S
C25          C31   1.518   1_455  S
C25          C29   1.546       .  S
C25        C1117   1.541       .  S
C26          H33   1.084       .  S
C26          C27   1.372   1_455  D
C27          C28   1.546       .  S
C27        C1141   1.504       .  S
C28          C32   1.551       .  S
C28          C30   1.543       .  S
C28          H34   1.109       .  S
C29          H35   1.084       .  S
C29          C30   1.374   1_455  D
C30        C1153   1.493       .  S
C31          H36   1.088       .  S
C31          C32   1.351       .  D
C32        C1129   1.480       .  S
C37          C38   1.531   1_565  S
C37          C43   1.519       .  S
C37          C41   1.543       .  S
C37        C1108   1.530       .  S
C38          H45   1.083       .  S
C38          C39   1.370       .  D
C39          C40   1.552   1_545  S
C39        C1069   1.501       .  S
C40          C44   1.548       .  S
C40          C42   1.549       .  S
C40          H46   1.109       .  S
C41          H47   1.082       .  S
C41          C42   1.371       .  D
C42        C1081   1.491       .  S
C43          H48   1.088       .  S
C43          C44   1.351       .  D
C44        C1096   1.476       .  S
C49          C50   1.531   1_545  S
C49          C55   1.511       .  S
C49          C53   1.551       .  S
C49        C1060   1.527       .  S
C50          H57   1.087       .  S
C50          C51   1.368       .  D
C51          C52   1.540   1_565  S
C51        C1033   1.490       .  S
C52          C56   1.553       .  S
C52          C54   1.536       .  S
C52          H58   1.108       .  S
C53          H59   1.082       .  S
C53          C54   1.375       .  D
C54        C1021   1.490       .  S
C55          H60   1.088       .  S
C55          C56   1.351       .  D
C56        C1045   1.468       .  S
C61          C62   1.548       .  S
C61          C67   1.529       .  S
C61          C65   1.532       .  S
C61         C973   1.538       .  S
C62          H69   1.080       .  S
C62          C63   1.376   1_455  D
C63          C64   1.550       .  S
C63        C1012   1.504       .  S
C64          C68   1.540       .  S
C64          C66   1.550       .  S
C64          H70   1.109       .  S
C65          H71   1.085       .  S
C65          C66   1.367   1_455  D
C66        C1000   1.499       .  S
C67          H72   1.087       .  S
C67          C68   1.355   1_455  D
C68         C985   1.483       .  S
C73          C74   1.537       .  S
C73          C79   1.525       .  S
C73          C77   1.549       .  S
C73         C928   1.537       .  S
C74          H81   1.083       .  S
C74          C75   1.372       .  D
C75          C76   1.551   1_554  S
C75         C961   1.506       .  S
C76          C80   1.546       .  S
C76          C78   1.543   1_556  S
C76          H82   1.109       .  S
C77          H83   1.082       .  S
C77          C78   1.373       .  D
C78         C949   1.486       .  S
C79          H84   1.088       .  S
C79          C80   1.352   1_554  D
C80         C937   1.490       .  S
O85         Ni93   1.928   1_455  S
O85          C95   1.285       .  A
O86         Ni93   1.933   1_556  S
O86          C96   1.284       .  A
O87         Ni93   1.922   1_456  S
O87          C97   1.282       .  A
O88         Ni93   1.922       .  S
O88          C98   1.283       .  A
O89         Ni94   1.938       .  S
O89          C98   1.285       .  A
O90         Ni94   1.938   1_456  S
O90          C97   1.285       .  A
O91         Ni94   1.934   1_556  S
O91          C96   1.285       .  A
O92         Ni94   1.931   1_455  S
O92          C95   1.282       .  A
Ni93        Ni94   2.376       .  S
C95         C877   1.509       .  S
C96         C916   1.507       .  S
C97         C892   1.502       .  S
C98         C904   1.503       .  S
N99         C103   1.360       .  A
N99         C100   1.363       .  A
N99         C913   1.451       .  S
C100       C1228   1.477       .  S
C100        C101   1.381       .  A
C101        C102   1.371       .  A
C101        H104   1.082       .  S
C102        C103   1.379       .  A
C102        H105   1.082       .  S
C103       C1132   1.472       .  S
C106        C107   1.538   1_655  S
C106        C112   1.535       .  S
C106        C110   1.548       .  S
C106        C868   1.542       .  S
C107        H114   1.085       .  S
C107        C108   1.371       .  D
C108        C109   1.549   1_455  S
C108        C829   1.495       .  S
C109        C113   1.528       .  S
C109        C111   1.547       .  S
C109        H115   1.108       .  S
C110        H116   1.076       .  S
C110        C111   1.372       .  D
C111        C841   1.509       .  S
C112        H117   1.087       .  S
C112        C113   1.354       .  D
C113        C853   1.476   1_655  S
N118        C122   1.364       .  A
N118        C119   1.363       .  A
N118        C901   1.453       .  S
C119        C844   1.483       .  S
C119        C120   1.384       .  A
C120        C121   1.367       .  A
C120        H123   1.083       .  S
C121        C122   1.381       .  A
C121        H124   1.082       .  S
C122       C1216   1.482       .  S
N125        C129   1.365       .  A
N125        C126   1.362       .  A
N125        C889   1.451       .  S
C126       C1120   1.478       .  S
C126        C127   1.379       .  A
C127        C128   1.370       .  A
C127        H130   1.082       .  S
C128        C129   1.381       .  A
C128        H131   1.082       .  S
C129        C940   1.481       .  S
O132       Ni140   1.931       .  S
O132        C142   1.285   1_554  A
O133       Ni140   1.931       .  S
O133        C143   1.284       .  A
O134       Ni140   1.919       .  S
O134        C144   1.280   1_554  A
O135       Ni140   1.917       .  S
O135        C145   1.282       .  A
O136       Ni141   1.924       .  S
O136        C145   1.282   1_556  A
O137       Ni141   1.923       .  S
O137        C144   1.284       .  A
O138       Ni141   1.923       .  S
O138        C143   1.282   1_556  A
O139       Ni141   1.924       .  S
O139        C142   1.282       .  A
Ni140      Ni141   2.382   1_554  S
C142        C817   1.494       .  S
C143        C793   1.491       .  S
C144        C781   1.492       .  S
C145        C808   1.491       .  S
N146        C150   1.364       .  A
N146        C147   1.364       .  A
N146        C805   1.445       .  S
C147       C1252   1.483       .  S
C147        C148   1.379       .  A
C148        C149   1.373       .  A
C148        H151   1.082       .  S
C149        C150   1.384       .  A
C149        H152   1.082       .  S
C150       C1204   1.493       .  S
C153        C154   1.545       .  S
C153        C159   1.523       .  S
C153        C157   1.552       .  S
C153        C745   1.543       .  S
C154        H161   1.076       .  S
C154        C155   1.361       .  D
C155        C156   1.540       .  S
C155        C769   1.496       .  S
C156        C160   1.549       .  S
C156        C158   1.541       .  S
C156        H162   1.110   1_556  S
C157        H163   1.085       .  S
C157        C158   1.375       .  D
C158        C757   1.494       .  S
C159        H164   1.087       .  S
C159        C160   1.357       .  D
C160        C733   1.476   1_556  S
O165       Ni173   1.920   1_565  S
O165        C175   1.280       .  A
O166       Ni173   1.925   1_554  S
O166        C176   1.283       .  A
O167       Ni173   1.925       .  S
O167        C177   1.283       .  A
O168       Ni173   1.923   1_564  S
O168        C178   1.281       .  A
O169       Ni174   1.916   1_564  S
O169        C178   1.283       .  A
O170       Ni174   1.924       .  S
O170        C177   1.282       .  A
O171       Ni174   1.933   1_554  S
O171        C176   1.284       .  A
O172       Ni174   1.925   1_565  S
O172        C175   1.284       .  A
Ni173      Ni174   2.380       .  S
C175        C721   1.492       .  S
C176        C685   1.501       .  S
C177        C700   1.494       .  S
C178        C712   1.493       .  S
N179        C183   1.365       .  A
N179        C180   1.367       .  A
N179        C724   1.448       .  S
C180       C1180   1.485       .  S
C180        C181   1.381       .  A
C181        C182   1.370       .  A
C181        H184   1.082       .  S
C182        C183   1.381       .  A
C182        H185   1.082       .  S
C183       C1084   1.490       .  S
C186        C187   1.543   1_545  S
C186        C192   1.523       .  S
C186        C190   1.532       .  S
C186        C673   1.532       .  S
C187        H194   1.080       .  S
C187        C188   1.368       .  D
C188        C189   1.542   1_565  S
C188        C649   1.488       .  S
C189        C193   1.548       .  S
C189        C191   1.549       .  S
C189        H195   1.108       .  S
C190        H196   1.086       .  S
C190        C191   1.371       .  D
C191        C637   1.502       .  S
C192        H197   1.087       .  S
C192        C193   1.356       .  D
C193        C664   1.480       .  S
N198        C202   1.360       .  A
N198        C199   1.362       .  A
N198        C709   1.445       .  S
C199       C1168   1.479       .  S
C199        C200   1.381       .  A
C200        C201   1.373       .  A
C200        H203   1.082       .  S
C201        C202   1.381       .  A
C201        H204   1.082       .  S
C202        C652   1.480       .  S
N205        C209   1.358       .  A
N205        C206   1.363       .  A
N205        C697   1.443       .  S
C206       C1072   1.488       .  S
C206        C207   1.388       .  A
C207        C208   1.366       .  A
C207        H210   1.083       .  S
C208        C209   1.378       .  A
C208        H211   1.082       .  S
C209        C748   1.475       .  S
O212       Ni220   1.924       .  S
O212        C222   1.282   1_455  A
O213       Ni220   1.928       .  S
O213        C223   1.281   1_455  A
O214       Ni220   1.926       .  S
O214        C224   1.281   1_455  A
O215       Ni220   1.922       .  S
O215        C225   1.283       .  A
O216       Ni221   1.925       .  S
O216        C225   1.282   1_655  A
O217       Ni221   1.923       .  S
O217        C224   1.284       .  A
O218       Ni221   1.920       .  S
O218        C223   1.284       .  A
O219       Ni221   1.919       .  S
O219        C222   1.282       .  A
Ni220      Ni221   2.381   1_455  S
C222        C625   1.488   1_655  S
C223        C589   1.499       .  S
C224        C613   1.498       .  S
C225        C601   1.490       .  S
N226        C230   1.363       .  A
N226        C227   1.364       .  A
N226        C616   1.444       .  S
C227       C1009   1.495       .  S
C227        C228   1.385       .  A
C228        C229   1.373       .  A
C228        H231   1.082       .  S
C229        C230   1.382       .  A
C229        H232   1.082       .  S
C230       C1156   1.489       .  S
O233       Ni241   1.933       .  S
O233        C243   1.282   1_545  A
O234       Ni241   1.937       .  S
O234        C244   1.284       .  A
O235       Ni241   1.938       .  S
O235        C245   1.286       .  A
O236       Ni241   1.938       .  S
O236        C246   1.285       .  A
O237       Ni242   1.918       .  S
O237        C246   1.282   1_565  A
O238       Ni242   1.920       .  S
O238        C245   1.281   1_565  A
O239       Ni242   1.936       .  S
O239        C244   1.285   1_565  A
O240       Ni242   1.932       .  S
O240        C243   1.286       .  A
Ni241      Ni242   2.377   1_545  S
C243        C577   1.508       .  S
C244        C553   1.507       .  S
C245        C541   1.498       .  S
C246        C565   1.504       .  S
N247        C251   1.352       .  A
N247        C248   1.358       .  A
N247        C568   1.450       .  S
C248       C1105   1.472       .  S
C248        C249   1.384       .  A
C249        C250   1.371       .  A
C249        H252   1.082       .  S
C250        C251   1.379       .  A
C250        H253   1.082       .  S
C251       C1057   1.463   1_565  S
C254        C255   1.554       .  S
C254        C260   1.527       .  S
C254        C258   1.538       .  S
C254        C493   1.536       .  S
C255        H262   1.079       .  S
C255        C256   1.373       .  D
C256        C257   1.537   1_545  S
C256        C517   1.491       .  S
C257        C261   1.537       .  S
C257        C259   1.538   1_565  S
C257        H263   1.110       .  S
C258        H264   1.086       .  S
C258        C259   1.369       .  D
C259        C529   1.486       .  S
C260        H265   1.087       .  S
C260        C261   1.352   1_545  D
C261        C505   1.480       .  S
O266       Ni274   1.930   1_665  S
O266        C276   1.283       .  A
O267       Ni274   1.936       .  S
O267        C277   1.285       .  A
O268       Ni274   1.935   1_565  S
O268        C278   1.284       .  A
O269       Ni274   1.930   1_655  S
O269        C279   1.282       .  A
O270       Ni275   1.925   1_655  S
O270        C279   1.284       .  A
O271       Ni275   1.930   1_565  S
O271        C278   1.284       .  A
O272       Ni275   1.932       .  S
O272        C277   1.283       .  A
O273       Ni275   1.926   1_665  S
O273        C276   1.283       .  A
Ni274      Ni275   2.376       .  S
C276        C484   1.496       .  S
C277        C445   1.504       .  S
C278        C460   1.511       .  S
C279        C469   1.506       .  S
N280        C284   1.359       .  A
N280        C281   1.358       .  A
N280        C481   1.447       .  S
C281       C1036   1.468       .  S
C281        C282   1.380       .  A
C282        C283   1.369       .  A
C282        H285   1.082       .  S
C283        C284   1.381       .  A
C283        H286   1.082       .  S
C284        C988   1.472       .  S
C287        C288   1.546       .  S
C287        C293   1.525   1_655  S
C287        C291   1.545       .  S
C287        C409   1.540       .  S
C288        H295   1.081       .  S
C288        C289   1.368   1_655  D
C289        C290   1.542       .  S
C289        C421   1.487       .  S
C290        C294   1.543       .  S
C290        C292   1.539       .  S
C290        H296   1.110       .  S
C291        H297   1.085       .  S
C291        C292   1.374   1_655  D
C292        C433   1.497       .  S
C293        H298   1.087       .  S
C293        C294   1.355       .  D
C294        C397   1.479       .  S
N299        C303   1.362       .  A
N299        C300   1.360       .  A
N299        C472   1.449       .  S
C300       C1024   1.474       .  S
C300        C301   1.381       .  A
C301        C302   1.367       .  A
C301        H304   1.082       .  S
C302        C303   1.381       .  A
C302        H305   1.082       .  S
C303        C412   1.475       .  S
N306        C310   1.357       .  A
N306        C307   1.361       .  A
N306        C457   1.450       .  S
C307        C976   1.478       .  S
C307        C308   1.383       .  A
C308        C309   1.373       .  A
C308        H311   1.082       .  S
C309        C310   1.382       .  A
C309        H312   1.082       .  S
C310        C508   1.477       .  S
N313        C317   1.364       .  A
N313        C314   1.361       .  A
N313        C580   1.453       .  S
C314        C520   1.480       .  S
C314        C315   1.384       .  A
C315        C316   1.366       .  A
C315        H318   1.083       .  S
C316        C317   1.380       .  A
C316        H319   1.082       .  S
C317       C1093   1.476       .  S
N320        C324   1.360       .  A
N320        C321   1.361       .  A
N320        C628   1.443       .  S
C321       C1144   1.485       .  S
C321        C322   1.381       .  A
C322        C323   1.374       .  A
C322        H325   1.082       .  S
C323        C324   1.383       .  A
C323        H326   1.082       .  S
C324        C424   1.486       .  S
N327        C331   1.360       .  A
N327        C328   1.364       .  A
N327        C448   1.454       .  S
C328        C400   1.478       .  S
C328        C329   1.383       .  A
C329        C330   1.367       .  A
C329        H332   1.082       .  S
C330        C331   1.379       .  A
C330        H333   1.082       .  S
C331        C496   1.472       .  S
N334        C338   1.359       .  A
N334        C335   1.359       .  A
N334        C556   1.457       .  S
C335        C676   1.464       .  S
C335        C336   1.381       .  A
C336        C337   1.366       .  A
C336        H339   1.082       .  S
C337        C338   1.380       .  A
C337        H340   1.082       .  S
C338       C1048   1.465       .  S
N341        C345   1.364       .  A
N341        C342   1.363       .  A
N341        C592   1.448       .  S
C342        C997   1.489       .  S
C342        C343   1.386       .  A
C343        C344   1.368       .  A
C343        H346   1.082       .  S
C344        C345   1.380       .  A
C344        H347   1.082       .  S
C345        C865   1.483       .  S
N348        C352   1.369       .  A
N348        C349   1.368       .  A
N348        C820   1.453       .  S
C349       C1240   1.491       .  S
C349        C350   1.381       .  A
C350        C351   1.368       .  A
C350        H353   1.082       .  S
C351        C352   1.380       .  A
C351        H354   1.082       .  S
C352        C760   1.484       .  S
N355        C359   1.361       .  A
N355        C356   1.366       .  A
N355        C688   1.448       .  S
C356        C640   1.494       .  S
C356        C357   1.386       .  A
C357        C358   1.369       .  A
C357        H360   1.082       .  S
C358        C359   1.379       .  A
C358        H361   1.082       .  S
C359        C736   1.484       .  S
N362        C366   1.363       .  A
N362        C363   1.364       .  A
N362        C796   1.448       .  S
C363        C952   1.487       .  S
C363        C364   1.384       .  A
C364        C365   1.372       .  A
C364        H367   1.082       .  S
C365        C366   1.379       .  A
C365        H368   1.082       .  S
C366       C1189   1.483       .  S
N369        C373   1.364       .  A
N369        C370   1.365       .  A
N369        C880   1.447       .  S
C370        C832   1.493       .  S
C370        C371   1.387       .  A
C371        C372   1.368       .  A
C371        H374   1.082       .  S
C372        C373   1.378       .  A
C372        H375   1.082       .  S
C373        C925   1.481       .  S
N376        C380   1.361       .  A
N376        C377   1.365       .  A
N376        C604   1.447       .  S
C377        C436   1.492       .  S
C377        C378   1.387       .  A
C378        C379   1.369       .  A
C378        H381   1.082       .  S
C379        C380   1.378       .  A
C379        H382   1.082       .  S
C380        C856   1.483       .  S
N383        C387   1.362       .  A
N383        C384   1.361       .  A
N383        C544   1.449   1_565  S
C384        C532   1.481       .  S
C384        C385   1.383       .  A
C385        C386   1.370       .  A
C385        H388   1.082       .  S
C386        C387   1.381       .  A
C386        H389   1.082       .  S
C387        C661   1.478   1_565  S
N390        C394   1.362       .  A
N390        C391   1.366       .  A
N390        C784   1.442       .  S
C391        C964   1.503       .  S
C391        C392   1.390       .  A
C392        C393   1.370       .  A
C392        H395   1.082       .  S
C393        C394   1.375       .  A
C393        H396   1.082       .  S
C394        C772   1.480       .  S
C397        C398   1.400       .  A
C397        C402   1.415       .  A
C398        C399   1.398       .  A
C398        H407   1.084       .  S
C399        C400   1.418       .  A
C399        S403   1.806       .  S
C400        C401   1.402       .  A
C401        C402   1.399       .  A
C401        H408   1.084       .  S
C402        S404   1.804       .  S
S403        H406   1.403       .  S
S404        H405   1.407       .  S
C409        C410   1.410       .  A
C409        C414   1.429       .  A
C410        C411   1.397       .  A
C410        H419   1.075       .  S
C411        C412   1.411       .  A
C411        S415   1.808       .  S
C412        C413   1.394       .  A
C413        C414   1.401       .  A
C413        H420   1.083       .  S
C414        S416   1.808       .  S
S415        H418   1.404       .  S
S416        H417   1.407       .  S
C421        C422   1.401       .  A
C421        C426   1.416   1_455  A
C422        C423   1.403       .  A
C422        H431   1.084       .  S
C423        C424   1.416       .  A
C423        S427   1.803       .  S
C424        C425   1.402   1_455  A
C425        C426   1.401       .  A
C425        H432   1.084       .  S
C426        S428   1.803       .  S
S427        H430   1.407       .  S
S428        H429   1.406       .  S
C433        C434   1.411       .  A
C433        C438   1.412       .  A
C434        C435   1.408       .  A
C434        H443   1.083       .  S
C435        C436   1.415       .  A
C435        S439   1.802       .  S
C436        C437   1.405       .  A
C437        C438   1.393       .  A
C437        H444   1.084       .  S
C438        S440   1.799   1_455  S
S439        H442   1.406       .  S
S440        H441   1.407   1_655  S
C445        C446   1.408       .  A
C445        C450   1.421       .  A
C446        C447   1.406       .  A
C446        H455   1.084       .  S
C447        C448   1.414       .  A
C447        S451   1.799       .  S
C448        C449   1.405       .  A
C449        C450   1.410       .  A
C449        H456   1.083       .  S
C450        S452   1.801       .  S
S451        H454   1.406       .  S
S452        H453   1.408       .  S
C457        C458   1.402       .  A
C457        C462   1.410       .  A
C458        C459   1.407       .  A
C458        H467   1.083       .  S
C459        C460   1.424       .  A
C459        S463   1.799       .  S
C460        C461   1.413       .  A
C461        C462   1.406       .  A
C461        H468   1.083       .  S
C462        S464   1.802       .  S
S463        H466   1.408       .  S
S464        H465   1.404       .  S
C469        C470   1.410       .  A
C469        C474   1.424       .  A
C470        C471   1.406       .  A
C470        H479   1.082       .  S
C471        C472   1.410       .  A
C471        S475   1.803       .  S
C472        C473   1.402       .  A
C473        C474   1.407       .  A
C473        H480   1.083       .  S
C474        S476   1.799       .  S
S475        H478   1.406       .  S
S476        H477   1.408       .  S
C481        C482   1.401       .  A
C481        C486   1.412       .  A
C482        C483   1.401       .  A
C482        H491   1.078       .  S
C483        C484   1.419       .  A
C483        S487   1.803       .  S
C484        C485   1.409       .  A
C485        C486   1.407       .  A
C485        H492   1.083       .  S
C486        S488   1.801       .  S
S487        H490   1.408   1_565  S
S488        H489   1.406       .  S
C493        C494   1.410       .  A
C493        C498   1.428       .  A
C494        C495   1.396       .  A
C494        H503   1.075       .  S
C495        C496   1.409       .  A
C495        S499   1.806       .  S
C496        C497   1.394       .  A
C497        C498   1.402       .  A
C497        H504   1.083       .  S
C498        S500   1.812       .  S
S499        H502   1.406       .  S
S500        H501   1.407       .  S
C505        C506   1.400       .  A
C505        C510   1.415       .  A
C506        C507   1.399       .  A
C506        H515   1.082       .  S
C507        C508   1.414       .  A
C507        S511   1.803       .  S
C508        C509   1.399       .  A
C509        C510   1.399       .  A
C509        H516   1.081       .  S
C510        S512   1.809       .  S
S511        H514   1.407       .  S
S512        H513   1.407       .  S
C517        C518   1.411   1_545  A
C517        C522   1.415       .  A
C518        C519   1.402       .  A
C518        H527   1.083       .  S
C519        C520   1.409       .  A
C519        S523   1.800       .  S
C520        C521   1.404   1_565  A
C521        C522   1.394       .  A
C521        H528   1.085       .  S
C522        S524   1.803       .  S
S523        H526   1.404       .  S
S524        H525   1.404       .  S
C529        C530   1.400   1_545  A
C529        C534   1.418       .  A
C530        C531   1.400       .  A
C530        H539   1.082       .  S
C531        C532   1.415       .  A
C531        S535   1.803       .  S
C532        C533   1.401   1_565  A
C533        C534   1.400       .  A
C533        H540   1.083       .  S
C534        S536   1.802       .  S
S535        H538   1.407       .  S
S536        H537   1.404       .  S
C541        C542   1.408       .  A
C541        C546   1.421   1_545  A
C542        C543   1.407       .  A
C542        H551   1.083       .  S
C543        C544   1.413       .  A
C543        S547   1.799       .  S
C544        C545   1.401   1_545  A
C545        C546   1.403       .  A
C545        H552   1.083       .  S
C546        S548   1.802       .  S
S547        H550   1.405       .  S
S548        H549   1.408       .  S
C553        C554   1.409   1_545  A
C553        C558   1.421       .  A
C554        C555   1.409       .  A
C554        H563   1.083       .  S
C555        C556   1.415   1_565  A
C555        S559   1.797       .  S
C556        C557   1.405       .  A
C557        C558   1.408       .  A
C557        H564   1.083       .  S
C558        S560   1.801       .  S
S559        H562   1.404       .  S
S560        H561   1.408       .  S
C565        C566   1.412   1_545  A
C565        C570   1.420       .  A
C566        C567   1.403       .  A
C566        H575   1.083       .  S
C567        C568   1.409       .  A
C567        S571   1.800       .  S
C568        C569   1.404   1_565  A
C569        C570   1.406       .  A
C569        H576   1.083       .  S
C570        S572   1.798       .  S
S571        H574   1.405       .  S
S572        H573   1.408       .  S
C577        C578   1.407       .  A
C577        C582   1.424   1_565  A
C578        C579   1.401       .  A
C578        H587   1.083       .  S
C579        C580   1.415       .  A
C579        S583   1.799       .  S
C580        C581   1.404   1_565  A
C581        C582   1.412       .  A
C581        H588   1.083       .  S
C582        S584   1.798       .  S
S583        H586   1.404       .  S
S584        H585   1.407       .  S
C589        C590   1.406       .  A
C589        C594   1.421   1_655  A
C590        C591   1.397       .  A
C590        H599   1.084       .  S
C591        C592   1.414       .  A
C591        S595   1.800       .  S
C592        C593   1.404       .  A
C593        C594   1.408   1_655  A
C593        H600   1.083   1_655  S
C594        S596   1.798       .  S
S595        H598   1.403       .  S
S596        H597   1.408       .  S
C601        C602   1.410   1_455  A
C601        C606   1.414       .  A
C602        C603   1.408       .  A
C602        H611   1.083       .  S
C603        C604   1.413   1_655  A
C603        S607   1.802       .  S
C604        C605   1.404       .  A
C605        C606   1.397       .  A
C605        H612   1.083       .  S
C606        S608   1.803       .  S
S607        H610   1.405       .  S
S608        H609   1.408       .  S
C613        C614   1.406       .  A
C613        C618   1.422   1_655  A
C614        C615   1.398       .  A
C614        H623   1.083       .  S
C615        C616   1.413       .  A
C615        S619   1.802       .  S
C616        C617   1.402       .  A
C617        C618   1.407   1_655  A
C617        H624   1.083   1_655  S
C618        S620   1.798       .  S
S619        H622   1.403       .  S
S620        H621   1.408       .  S
C625        C626   1.407   1_455  A
C625        C630   1.417       .  A
C626        C627   1.405       .  A
C626        H635   1.082       .  S
C627        C628   1.409   1_655  A
C627        S631   1.803       .  S
C628        C629   1.402       .  A
C629        C630   1.402       .  A
C629        H636   1.083       .  S
C630        S632   1.803       .  S
S631        H634   1.407       .  S
S632        H633   1.408       .  S
C637        C638   1.403       .  A
C637        C642   1.420       .  A
C638        C639   1.395       .  A
C638        H647   1.083       .  S
C639        C640   1.419       .  A
C639        S643   1.806       .  S
C640        C641   1.404       .  A
C641        C642   1.407       .  A
C641        H648   1.082       .  S
C642        S644   1.795       .  S
S643        H646   1.407       .  S
S644        H645   1.405       .  S
C649        C650   1.404       .  A
C649        C654   1.411       .  A
C650        C651   1.392       .  A
C650        H659   1.084       .  S
C651        C652   1.410       .  A
C651        S655   1.798       .  S
C652        C653   1.407       .  A
C653        C654   1.408       .  A
C653        H660   1.083       .  S
C654        S656   1.805       .  S
S655        H658   1.405       .  S
S656        H657   1.407       .  S
C661        C662   1.399   1_545  A
C661        C666   1.418       .  A
C662        C663   1.398       .  A
C662        H671   1.084       .  S
C663        C664   1.419   1_565  A
C663        S667   1.806       .  S
C664        C665   1.397       .  A
C665        C666   1.399       .  A
C665        H672   1.084       .  S
C666        S668   1.805       .  S
S667        H670   1.406       .  S
S668        H669   1.403       .  S
C673        C674   1.409   1_545  A
C673        C678   1.426       .  A
C674        C675   1.392       .  A
C674        H683   1.074       .  S
C675        C676   1.410   1_565  A
C675        S679   1.810       .  S
C676        C677   1.394       .  A
C677        C678   1.400       .  A
C677        H684   1.083       .  S
C678        S680   1.813       .  S
S679        H682   1.401       .  S
S680        H681   1.406       .  S
C685        C686   1.413       .  A
C685        C690   1.419       .  A
C686        C687   1.411       .  A
C686        H695   1.083       .  S
C687        C688   1.412       .  A
C687        S691   1.802       .  S
C688        C689   1.402       .  A
C689        C690   1.399       .  A
C689        H696   1.083       .  S
C690        S692   1.801       .  S
S691        H694   1.404       .  S
S692        H693   1.406   1_554  S
C697        C698   1.402       .  A
C697        C702   1.410       .  A
C698        C699   1.401       .  A
C698        H707   1.082       .  S
C699        C700   1.416       .  A
C699        S703   1.806       .  S
C700        C701   1.412       .  A
C701        C702   1.407       .  A
C701        H708   1.083       .  S
C702        S704   1.802       .  S
S703        H706   1.407       .  S
S704        H705   1.405       .  S
C709        C710   1.403       .  A
C709        C714   1.409       .  A
C710        C711   1.408       .  A
C710        H719   1.082       .  S
C711        C712   1.419       .  A
C711        S715   1.808       .  S
C712        C713   1.406       .  A
C713        C714   1.400       .  A
C713        H720   1.082       .  S
C714        S716   1.801       .  S
S715        H718   1.407       .  S
S716        H717   1.406       .  S
C721        C722   1.404       .  A
C721        C726   1.418       .  A
C722        C723   1.399       .  A
C722        H731   1.084       .  S
C723        C724   1.416       .  A
C723        S727   1.795       .  S
C724        C725   1.404       .  A
C725        C726   1.404       .  A
C725        H732   1.083       .  S
C726        S728   1.798       .  S
S727        H730   1.398       .  S
S728        H729   1.407       .  S
C733        C734   1.400       .  A
C733        C738   1.416       .  A
C734        C735   1.399       .  A
C734        H743   1.084       .  S
C735        C736   1.414       .  A
C735        S739   1.804       .  S
C736        C737   1.403       .  A
C737        C738   1.402       .  A
C737        H744   1.084       .  S
C738        S740   1.808       .  S
S739        H742   1.406       .  S
S740        H741   1.400   1_554  S
C745        C746   1.415       .  A
C745        C750   1.426       .  A
C746        C747   1.390       .  A
C746        H755   1.071       .  S
C747        C748   1.403       .  A
C747        S751   1.808       .  S
C748        C749   1.400       .  A
C749        C750   1.408       .  A
C749        H756   1.083       .  S
C750        S752   1.810       .  S
S751        H754   1.406       .  S
S752        H753   1.407       .  S
C757        C758   1.401       .  A
C757        C762   1.415       .  A
C758        C759   1.400   1_556  A
C758        H767   1.083   1_556  S
C759        C760   1.419   1_554  A
C759        S763   1.810       .  S
C760        C761   1.404       .  A
C761        C762   1.410       .  A
C761        H768   1.083       .  S
C762        S764   1.803       .  S
S763        H766   1.399       .  S
S764        H765   1.406       .  S
C769        C770   1.405       .  A
C769        C774   1.422       .  A
C770        C771   1.408       .  A
C770        H779   1.083   1_556  S
C771        C772   1.416       .  A
C771        S775   1.804   1_556  S
C772        C773   1.395       .  A
C773        C774   1.391       .  A
C773        H780   1.082       .  S
C774        S776   1.806       .  S
S775        H778   1.401       .  S
S776        H777   1.398       .  S
C781        C782   1.405       .  A
C781        C786   1.421   1_556  A
C782        C783   1.401       .  A
C782        H791   1.082       .  S
C783        C784   1.412       .  A
C783        S787   1.804       .  S
C784        C785   1.399   1_556  A
C785        C786   1.403       .  A
C785        H792   1.083       .  S
C786        S788   1.801       .  S
S787        H790   1.406       .  S
S788        H789   1.408       .  S
C793        C794   1.407   1_554  A
C793        C798   1.415       .  A
C794        C795   1.408       .  A
C794        H803   1.083       .  S
C795        C796   1.412   1_556  A
C795        S799   1.804       .  S
C796        C797   1.404       .  A
C797        C798   1.403       .  A
C797        H804   1.083       .  S
C798        S800   1.802       .  S
S799        H802   1.406       .  S
S800        H801   1.408       .  S
C805        C806   1.404   1_554  A
C805        C810   1.416       .  A
C806        C807   1.403       .  A
C806        H815   1.083       .  S
C807        C808   1.417   1_556  A
C807        S811   1.801       .  S
C808        C809   1.405       .  A
C809        C810   1.399       .  A
C809        H816   1.084       .  S
C810        S812   1.802       .  S
S811        H814   1.408       .  S
S812        H813   1.402       .  S
C817        C818   1.403   1_556  A
C817        C822   1.417       .  A
C818        C819   1.403       .  A
C818        H827   1.084       .  S
C819        C820   1.418   1_554  A
C819        S823   1.796       .  S
C820        C821   1.405       .  A
C821        C822   1.409       .  A
C821        H828   1.082       .  S
C822        S824   1.807       .  S
S823        H826   1.399       .  S
S824        H825   1.407       .  S
C829        C830   1.402       .  A
C829        C834   1.414       .  A
C830        C831   1.396       .  A
C830        H839   1.078       .  S
C831        C832   1.411       .  A
C831        S835   1.791       .  S
C832        C833   1.410       .  A
C833        C834   1.399       .  A
C833        H840   1.085       .  S
C834        S836   1.799       .  S
S835        H838   1.405       .  S
S836        H837   1.407       .  S
C841        C842   1.413       .  A
C841        C846   1.424       .  A
C842        C843   1.403       .  A
C842        H851   1.076       .  S
C843        C844   1.408       .  A
C843        S847   1.804       .  S
C844        C845   1.402       .  A
C845        C846   1.395       .  A
C845        H852   1.085       .  S
C846        S848   1.807       .  S
S847        H850   1.405       .  S
S848        H849   1.404       .  S
C853        C854   1.400       .  A
C853        C858   1.410   1_455  A
C854        C855   1.399       .  A
C854        H863   1.084       .  S
C855        C856   1.416       .  A
C855        S859   1.803       .  S
C856        C857   1.404   1_455  A
C857        C858   1.398       .  A
C857        H864   1.083       .  S
C858        S860   1.800       .  S
S859        H862   1.406       .  S
S860        H861   1.406       .  S
C865        C866   1.398       .  A
C865        C870   1.413       .  A
C866        C867   1.404       .  A
C866        H875   1.082   1_655  S
C867        C868   1.427       .  A
C867        S871   1.810   1_655  S
C868        C869   1.411       .  A
C869        C870   1.397       .  A
C869        H876   1.074       .  S
C870        S872   1.808       .  S
S871        H874   1.406       .  S
S872        H873   1.401       .  S
C877        C878   1.408       .  A
C877        C882   1.425       .  A
C878        C879   1.401       .  A
C878        H887   1.083       .  S
C879        C880   1.418       .  A
C879        S883   1.811       .  S
C880        C881   1.402       .  A
C881        C882   1.410       .  A
C881        H888   1.083       .  S
C882        S884   1.800       .  S
S883        H886   1.400       .  S
S884        H885   1.408       .  S
C889        C890   1.405       .  A
C889        C894   1.415       .  A
C890        C891   1.406       .  A
C890        H899   1.083       .  S
C891        C892   1.418       .  A
C891        S895   1.801       .  S
C892        C893   1.410       .  A
C893        C894   1.406       .  A
C893        H900   1.084       .  S
C894        S896   1.803       .  S
S895        H898   1.408       .  S
S896        H897   1.400       .  S
C901        C902   1.405       .  A
C901        C906   1.413       .  A
C902        C903   1.410       .  A
C902        H911   1.083       .  S
C903        C904   1.421       .  A
C903        S907   1.800       .  S
C904        C905   1.407       .  A
C905        C906   1.405       .  A
C905        H912   1.082       .  S
C906        S908   1.805       .  S
S907        H910   1.408       .  S
S908        H909   1.406       .  S
C913        C914   1.403       .  A
C913        C918   1.412       .  A
C914        C915   1.407       .  A
C914        H923   1.081       .  S
C915        C916   1.422       .  A
C915        S919   1.801       .  S
C916        C917   1.411       .  A
C917        C918   1.407       .  A
C917        H924   1.083       .  S
C918        S920   1.801       .  S
S919        H922   1.408       .  S
S920        H921   1.406       .  S
C925        C926   1.390       .  A
C925        C930   1.414       .  A
C926        C927   1.397       .  A
C926        H935   1.072       .  S
C927        C928   1.428       .  A
C927        S931   1.812       .  S
C928        C929   1.409       .  A
C929        C930   1.403       .  A
C929        H936   1.077       .  S
C930        S932   1.805       .  S
S931        H934   1.406       .  S
S932        H933   1.407       .  S
C937        C938   1.410       .  A
C937        C942   1.409       .  A
C938        C939   1.401       .  A
C938        H947   1.084       .  S
C939        C940   1.409       .  A
C939        S943   1.804       .  S
C940        C941   1.407       .  A
C941        C942   1.405       .  A
C941        H948   1.083       .  S
C942        S944   1.806       .  S
S943        H946   1.405       .  S
S944        H945   1.406       .  S
C949        C950   1.398   1_554  A
C949        C954   1.416       .  A
C950        C951   1.399       .  A
C950        H959   1.084       .  S
C951        C952   1.418   1_556  A
C951        S955   1.806       .  S
C952        C953   1.404       .  A
C953        C954   1.406       .  A
C953        H960   1.084       .  S
C954        S956   1.803       .  S
S955        H958   1.404       .  S
S956        H957   1.406       .  S
C961        C962   1.410   1_554  A
C961        C966   1.417       .  A
C962        C963   1.408       .  A
C962        H971   1.082       .  S
C963        C964   1.418       .  A
C963        S967   1.795       .  S
C964        C965   1.406   1_556  A
C965        C966   1.394       .  A
C965        H972   1.084       .  S
C966        S968   1.799       .  S
S967        H970   1.405       .  S
S968        H969   1.407       .  S
C973        C974   1.410       .  A
C973        C978   1.429       .  A
C974        C975   1.401       .  A
C974        H983   1.076       .  S
C975        C976   1.413       .  A
C975        S979   1.805       .  S
C976        C977   1.392       .  A
C977        C978   1.396       .  A
C977        H984   1.082       .  S
C978        S980   1.808       .  S
S979        H982   1.404       .  S
S980        H981   1.407       .  S
C985        C986   1.407       .  A
C985        C990   1.411       .  A
C986        C987   1.399       .  A
C986        H995   1.084       .  S
C987        C988   1.410       .  A
C987        S991   1.804       .  S
C988        C989   1.402       .  A
C989        C990   1.399       .  A
C989        H996   1.083       .  S
C990        S992   1.804       .  S
S991        H994   1.404       .  S
S992        H993   1.406       .  S
C997        C998   1.403       .  A
C997       C1002   1.413       .  A
C998        C999   1.392       .  A
C998       H1007   1.084       .  S
C999       C1000   1.416       .  A
C999       S1003   1.798   1_655  S
C1000      C1001   1.406       .  A
C1001      C1002   1.404       .  A
C1001      H1008   1.074       .  S
C1002      S1004   1.799       .  S
S1003      H1006   1.406   1_455  S
S1004      H1005   1.404       .  S
C1009      C1010   1.406       .  A
C1009      C1014   1.412       .  A
C1010      C1011   1.400       .  A
C1010      H1019   1.084       .  S
C1011      C1012   1.418       .  A
C1011      S1015   1.804   1_655  S
C1012      C1013   1.408       .  A
C1013      C1014   1.404       .  A
C1013      H1020   1.074       .  S
C1014      S1016   1.799       .  S
S1015      H1018   1.408   1_455  S
S1016      H1017   1.405       .  S
C1021      C1022   1.406       .  A
C1021      C1026   1.411       .  A
C1022      C1023   1.397       .  A
C1022      H1031   1.084       .  S
C1023      C1024   1.410       .  A
C1023      S1027   1.801       .  S
C1024      C1025   1.404       .  A
C1025      C1026   1.404       .  A
C1025      H1032   1.083       .  S
C1026      S1028   1.802       .  S
S1027      H1030   1.404       .  S
S1028      H1029   1.407       .  S
C1033      C1034   1.408       .  A
C1033      C1038   1.414       .  A
C1034      C1035   1.392       .  A
C1034      H1043   1.084       .  S
C1035      C1036   1.410       .  A
C1035      S1039   1.808       .  S
C1036      C1037   1.405       .  A
C1037      C1038   1.403       .  A
C1037      H1044   1.084       .  S
C1038      S1040   1.802       .  S
S1039      H1042   1.402       .  S
S1040      H1041   1.395       .  S
C1045      C1046   1.401       .  A
C1045      C1050   1.417   1_545  A
C1046      C1047   1.395       .  A
C1046      H1055   1.081       .  S
C1047      C1048   1.409       .  A
C1047      S1051   1.804       .  S
C1048      C1049   1.397       .  A
C1049      C1050   1.395   1_545  A
C1049      H1056   1.083   1_545  S
C1050      S1052   1.807       .  S
S1051      H1054   1.406       .  S
S1052      H1053   1.398       .  S
C1057      C1058   1.392   1_545  A
C1057      C1062   1.405       .  A
C1058      C1059   1.393       .  A
C1058      H1067   1.082       .  S
C1059      C1060   1.427   1_565  A
C1059      S1063   1.812       .  S
C1060      C1061   1.410       .  A
C1061      C1062   1.396       .  A
C1061      H1068   1.076       .  S
C1062      S1064   1.804       .  S
S1063      H1066   1.406       .  S
S1064      H1065   1.406       .  S
C1069      C1070   1.411       .  A
C1069      C1074   1.419       .  A
C1070      C1071   1.408       .  A
C1070      H1079   1.082       .  S
C1071      C1072   1.415       .  A
C1071      S1075   1.800       .  S
C1072      C1073   1.401       .  A
C1073      C1074   1.388       .  A
C1073      H1080   1.085       .  S
C1074      S1076   1.801       .  S
S1075      H1078   1.406       .  S
S1076      H1077   1.401       .  S
C1081      C1082   1.405       .  A
C1081      C1086   1.408       .  A
C1082      C1083   1.401       .  A
C1082      H1091   1.084       .  S
C1083      C1084   1.411       .  A
C1083      S1087   1.795       .  S
C1084      C1085   1.407       .  A
C1085      C1086   1.407       .  A
C1085      H1092   1.083       .  S
C1086      S1088   1.801       .  S
S1087      H1090   1.407       .  S
S1088      H1089   1.407       .  S
C1093      C1094   1.403       .  A
C1093      C1098   1.417       .  A
C1094      C1095   1.400       .  A
C1094      H1103   1.084   1_565  S
C1095      C1096   1.411       .  A
C1095      S1099   1.798   1_565  S
C1096      C1097   1.399       .  A
C1097      C1098   1.397       .  A
C1097      H1104   1.081       .  S
C1098      S1100   1.808       .  S
S1099      H1102   1.406       .  S
S1100      H1101   1.398       .  S
C1105      C1106   1.393       .  A
C1105      C1110   1.411       .  A
C1106      C1107   1.394       .  A
C1106      H1115   1.082   1_565  S
C1107      C1108   1.427       .  A
C1107      S1111   1.810   1_565  S
C1108      C1109   1.408       .  A
C1109      C1110   1.396       .  A
C1109      H1116   1.076       .  S
C1110      S1112   1.805       .  S
S1111      H1114   1.407       .  S
S1112      H1113   1.404       .  S
C1117      C1118   1.413       .  A
C1117      C1122   1.427       .  A
C1118      C1119   1.396       .  A
C1118      H1127   1.079       .  S
C1119      C1120   1.406       .  A
C1119      S1123   1.803       .  S
C1120      C1121   1.399       .  A
C1121      C1122   1.409       .  A
C1121      H1128   1.083       .  S
C1122      S1124   1.810       .  S
S1123      H1126   1.404       .  S
S1124      H1125   1.406       .  S
C1129      C1130   1.400       .  A
C1129      C1134   1.416       .  A
C1130      C1131   1.398       .  A
C1130      H1139   1.079       .  S
C1131      C1132   1.413       .  A
C1131      S1135   1.806       .  S
C1132      C1133   1.400       .  A
C1133      C1134   1.401       .  A
C1133      H1140   1.084       .  S
C1134      S1136   1.805       .  S
S1135      H1138   1.400       .  S
S1136      H1137   1.402       .  S
C1141      C1142   1.412   1_655  A
C1141      C1146   1.414       .  A
C1142      C1143   1.404       .  A
C1142      H1151   1.083       .  S
C1143      C1144   1.410       .  A
C1143      S1147   1.804       .  S
C1144      C1145   1.403   1_455  A
C1145      C1146   1.406       .  A
C1145      H1152   1.083       .  S
C1146      S1148   1.799       .  S
S1147      H1150   1.405       .  S
S1148      H1149   1.407       .  S
C1153      C1154   1.403       .  A
C1153      C1158   1.416       .  A
C1154      C1155   1.402       .  A
C1154      H1163   1.084       .  S
C1155      C1156   1.418       .  A
C1155      S1159   1.806       .  S
C1156      C1157   1.404       .  A
C1157      C1158   1.402       .  A
C1157      H1164   1.083   1_655  S
C1158      S1160   1.802   1_655  S
S1159      H1162   1.401       .  S
S1160      H1161   1.404       .  S
C1165      C1166   1.405       .  A
C1165      C1170   1.416       .  A
C1166      C1167   1.403       .  A
C1166      H1175   1.081       .  S
C1167      C1168   1.413       .  A
C1167      S1171   1.804       .  S
C1168      C1169   1.400       .  A
C1169      C1170   1.397       .  A
C1169      H1176   1.079       .  S
C1170      S1172   1.803       .  S
S1171      H1174   1.404       .  S
S1172      H1173   1.408       .  S
C1177      C1178   1.408       .  A
C1177      C1182   1.420       .  A
C1178      C1179   1.396       .  A
C1178      H1187   1.082       .  S
C1179      C1180   1.416       .  A
C1179      S1183   1.811       .  S
C1180      C1181   1.406       .  A
C1181      C1182   1.414       .  A
C1181      H1188   1.083       .  S
C1182      S1184   1.806       .  S
S1183      H1186   1.399       .  S
S1184      H1185   1.407       .  S
C1189      C1190   1.405       .  A
C1189      C1194   1.412   1_554  A
C1190      C1191   1.403       .  A
C1190      H1199   1.084       .  S
C1191      C1192   1.412       .  A
C1191      S1195   1.803       .  S
C1192      C1193   1.404   1_554  A
C1193      C1194   1.402       .  A
C1193      H1200   1.084       .  S
C1194      S1196   1.802       .  S
S1195      H1198   1.404       .  S
S1196      H1197   1.405       .  S
C1201      C1202   1.414       .  A
C1201      C1206   1.425   1_554  A
C1202      C1203   1.399       .  A
C1202      H1211   1.082       .  S
C1203      C1204   1.409       .  A
C1203      S1207   1.797       .  S
C1204      C1205   1.404   1_554  A
C1205      C1206   1.402       .  A
C1205      H1212   1.084       .  S
C1206      S1208   1.802       .  S
S1207      H1210   1.405       .  S
S1208      H1209   1.403       .  S
C1213      C1214   1.411       .  A
C1213      C1218   1.427       .  A
C1214      C1215   1.399       .  A
C1214      H1223   1.076       .  S
C1215      C1216   1.413       .  A
C1215      S1219   1.808       .  S
C1216      C1217   1.398       .  A
C1217      C1218   1.402       .  A
C1217      H1224   1.082       .  S
C1218      S1220   1.813       .  S
S1219      H1222   1.403       .  S
S1220      H1221   1.406       .  S
C1225      C1226   1.408       .  A
C1225      C1230   1.412       .  A
C1226      C1227   1.399       .  A
C1226      H1235   1.084       .  S
C1227      C1228   1.409       .  A
C1227      S1231   1.802       .  S
C1228      C1229   1.404       .  A
C1229      C1230   1.402       .  A
C1229      H1236   1.084       .  S
C1230      S1232   1.797       .  S
S1231      H1234   1.404       .  S
S1232      H1233   1.406       .  S
C1237      C1238   1.407       .  A
C1237      C1242   1.411   1_554  A
C1238      C1239   1.404       .  A
C1238      H1247   1.083       .  S
C1239      C1240   1.412   1_554  A
C1239      S1243   1.797       .  S
C1240      C1241   1.408       .  A
C1241      C1242   1.405       .  A
C1241      H1248   1.084       .  S
C1242      S1244   1.801       .  S
S1243      H1246   1.407       .  S
S1244      H1245   1.406       .  S
C1249      C1250   1.408   1_554  A
C1249      C1254   1.421       .  A
C1250      C1251   1.405       .  A
C1250      H1259   1.080       .  S
C1251      C1252   1.413   1_556  A
C1251      S1255   1.804       .  S
C1252      C1253   1.399       .  A
C1253      C1254   1.398       .  A
C1253      H1260   1.081       .  S
C1254      S1256   1.804       .  S
S1255      H1258   1.402       .  S
S1256      H1257   1.406       .  S
