geometry optimzed in LAMMPS
_audit_creation_date              2020-11-30 
_audit_creation_method            'lammps2cif' 
_symmetry_space_group_name_H-M    'P1' 
_symmetry_Int_Tables_number       1 
_symmetry_cell_setting            triclinic 
loop_ 
_symmetry_equiv_pos_as_xyz 
  x,y,z 
_cell_length_a                    26.50859865 
_cell_length_b                    27.23024310335571 
_cell_length_c                    38.15552557552951 
_cell_angle_alpha                 89.07825744136188 
_cell_angle_beta                  91.4717831003822 
_cell_angle_gamma                 121.44922931939247 
loop_ 
_atom_site_label 
_atom_site_type_symbol 
_atom_site_fract_x 
_atom_site_fract_y 
_atom_site_fract_z 
_atom_site_charge 
C1          C  0.00095046  0.33921044  0.28436643     0.87700
C2          C  0.05938233  0.34272659  0.27881198    -0.52500
C3          C  0.06133963  0.31859046  0.24833595     0.10600
C4          C  0.00387299  0.29254851  0.22598912     0.21600
C5          C  0.99180531  0.36737230  0.25154777    -0.53200
C6          C  0.99352375  0.34286770  0.22094339     0.10700
C7          C  0.95345849  0.27526736  0.28153126    -0.52800
C8          C  0.95424149  0.25046321  0.25073061     0.11300
H9          H  0.09705491  0.36444571  0.29683949     0.15800
H10         H  0.00556484  0.27311714  0.20099320     0.01600
H11         H  0.98586795  0.40391077  0.25239136     0.16100
H12         H  0.91990340  0.25306704  0.30120023     0.15900
C13         C  0.27951362  0.33688845  0.28110674     0.87700
C14         C  0.26507841  0.27544074  0.28685093    -0.52500
C15         C  0.23366499  0.23915083  0.25980947     0.10600
C16         C  0.21916201  0.26815570  0.22930157     0.21600
C17         C  0.31115156  0.35603803  0.24631103    -0.53200
C18         C  0.27951607  0.32074905  0.21909926     0.10700
C19         C  0.21983501  0.33133195  0.27421668    -0.52800
C20         C  0.18785943  0.29536257  0.24698622     0.11300
H21         H  0.27873497  0.26171999  0.31024862     0.15800
H22         H  0.19347371  0.23905438  0.20716574     0.01600
H23         H  0.35327182  0.39603455  0.24301813     0.16100
H24         H  0.20381835  0.35318323  0.28991191     0.15900
C25         C  0.29623795  0.07248185  0.28376045     0.87700
C26         C  0.23944667  0.01378740  0.28098416    -0.52500
C27         C  0.20770870  0.00564978  0.25067335     0.10600
C28         C  0.23583712  0.05813836  0.22572016     0.21600
C29         C  0.33044051  0.07739775  0.25069984    -0.53200
C30         C  0.29859250  0.06957500  0.22029171     0.10700
C31         C  0.27726871  0.11607158  0.27863725    -0.52800
C32         C  0.24557553  0.10920403  0.24827918     0.11300
H33         H  0.22688992  0.98007839  0.30056121     0.15800
H34         H  0.21021407  0.05177767  0.20094919     0.01600
H35         H  0.37478795  0.08456648  0.25130348     0.16100
H36         H  0.29036528  0.15114207  0.29689709     0.15900
C37         C  0.00586387  0.77819013  0.26986097     0.87700
C38         C  0.95158559  0.78361568  0.27078855    -0.52500
C39         C  0.94716644  0.81474426  0.24361753     0.10600
C40         C  0.99844136  0.83732146  0.21759340     0.21600
C41         C  0.00260081  0.75214613  0.23390659    -0.53200
C42         C  0.99867366  0.78314301  0.20647813     0.10700
C43         C  0.05813403  0.83981044  0.26800866    -0.52800
C44         C  0.05529011  0.87117121  0.24043764     0.11300
H45         H  0.91844369  0.76277675  0.29085445     0.15800
H46         H  0.99536292  0.86245838  0.19530744     0.01600
H47         H  0.00376220  0.71322620  0.23042487     0.16100
H48         H  0.09419100  0.85725627  0.28726143     0.15900
C49         C  0.70907189  0.76394264  0.29544182     0.88900
C50         C  0.71161914  0.82057098  0.28771691    -0.52500
C51         C  0.74319146  0.84861873  0.25843575     0.10600
C52         C  0.76890707  0.81649492  0.23973239     0.21600
C53         C  0.68396244  0.72831739  0.26204515    -0.53200
C54         C  0.71503362  0.75557807  0.23289774     0.10700
C55         C  0.77343210  0.78034749  0.29782477    -0.52800
C56         C  0.80523390  0.80763035  0.26879507     0.11300
H57         H  0.68952342  0.83631894  0.30351521     0.15800
H58         H  0.79422359  0.83869336  0.21589385     0.01600
H59         H  0.64494988  0.68517901  0.26147503     0.16100
H60         H  0.79219478  0.77026258  0.32049095     0.15900
C61         C  0.71476422  0.04865576  0.22248487     0.87700
C62         C  0.71930465  0.99478412  0.22559738    -0.52500
C63         C  0.75100406  0.99482346  0.25457990     0.10600
C64         C  0.77569729  0.04951675  0.27725620     0.21600
C65         C  0.68926600  0.05214011  0.25739695    -0.53200
C66         C  0.72132003  0.05274075  0.28603807     0.10700
C67         C  0.77879678  0.09958235  0.22307122    -0.52800
C68         C  0.81104806  0.10058943  0.25198332     0.11300
H69         H  0.69662902  0.95871394  0.20767214     0.15800
H70         H  0.80141796  0.04997724  0.30084542     0.01600
H71         H  0.64977157  0.05454888  0.25926891     0.16100
H72         H  0.79531210  0.13374658  0.20360807     0.15900
O73         O  0.46890562  0.08032012  0.43517687    -0.78900
O74         O  0.59325676  0.15632965  0.99673284    -0.78900
O75         O  0.46952688  0.13563035  0.00448585    -0.78900
O76         O  0.60082177  0.02786488  0.46395204    -0.78900
O77         O  0.53677367  0.17862334  0.04703740    -0.79000
O78         O  0.56539998  0.07093982  0.43149972    -0.78900
O79         O  0.63576328  0.10852716  0.51497770    -0.78900
O80         O  0.38976327  0.04319348  0.46621377    -0.78900
C81         C  0.41687208  0.06859068  0.43860751     1.10800
C82         C  0.63906180  0.15396703  0.00247417     1.10700
C83         C  0.50249751  0.18003373  0.02400055     1.10800
C84         C  0.60237297  0.05561882  0.43651554     1.10700
O85         O  0.49420615  0.94991678  0.44972902    -0.78900
O86         O  0.45909380  0.06777836  0.06429445    -0.79000
O87         O  0.39252793  0.96191846  0.01343656    -0.78900
O88         O  0.54401465  0.01893614  0.06090603    -0.78900
O89         O  0.57835693  0.11023694  0.06604287    -0.78900
O90         O  0.39778324  0.95694834  0.45577074    -0.78900
O91         O  0.50661586  0.94367260  0.50683448    -0.78900
O92         O  0.37537581  0.04721313  0.03710234    -0.78900
Co93       Co  0.48331875  0.01764453  0.44556594     1.51500
Co94       Co  0.52574883  0.11058915  0.02711315     1.51700
Co95       Co  0.43468523  0.04662831  0.01058090     1.51600
Co96       Co  0.56743712  0.02523697  0.51151490     1.51500
O97         O  0.50564216  0.04433736  0.99581648    -1.40800
C98         C  0.49166419  0.92108588  0.47685597     1.10700
C99         C  0.40520347  0.05631948  0.06529136     1.10800
C100        C  0.37402022  0.93390429  0.48498720     1.10700
C101        C  0.57040477  0.06384532  0.07903872     1.10700
O102        O  0.88310421  0.44678655  0.46274820    -0.78900
O103        O  0.99600020  0.61763033  0.06780340    -0.78900
O104        O  0.01802557  0.46738917  0.04012777    -0.78900
O105        O  0.91922545  0.60840969  0.99903570    -0.78900
O106        O  0.99519890  0.51647990  0.07462145    -0.79000
O107        O  0.87817265  0.54118732  0.46026608    -0.78900
O108        O  0.02014905  0.68249276  0.02631161    -0.78900
O109        O  0.91892164  0.43688301  0.01136713    -0.78900
C110        C  0.87735862  0.41769902  0.48968987     1.10800
C111        C  0.00466201  0.66569735  0.05765593     1.10700
C112        C  0.00246794  0.47479263  0.06989491     1.10800
C113        C  0.87433981  0.57332257  0.48179148     1.10700
O114        O  0.99285265  0.60615197  0.42566619    -0.78900
O115        O  0.10509786  0.56807738  0.03751031    -0.79000
O116        O  0.99919469  0.43604985  0.46784687    -0.78900
O117        O  0.08232651  0.65459690  0.97466378    -0.78900
O118        O  0.10588163  0.66758649  0.03041841    -0.78900
O119        O  0.00016000  0.50362577  0.43350882    -0.78900
O120        O  0.00193534  0.68221230  0.45318560    -0.78900
O121        O  0.08216357  0.54728825  0.98233516    -0.78900
Co122      Co  0.94508707  0.52880617  0.45282347     1.51500
Co123      Co  0.04549203  0.58973960  0.04955358     1.51700
Co124      Co  0.99827430  0.49386627  0.99485384     1.51600
Co125      Co  0.99884491  0.62739930  0.98579597     1.51500
O126        O  0.98668640  0.55621511  0.00657946    -1.40800
C127        C  0.00079730  0.65728633  0.42508603     1.10700
C128        C  0.11863111  0.56044559  0.00739356     1.10800
C129        C  0.00160934  0.45706710  0.43746517     1.10700
C130        C  0.12002254  0.68114083  0.99875698     1.10700
O131        O  0.40075737  0.57580041  0.48875165    -0.78900
O132        O  0.58019535  0.56872117  0.07308778    -0.78900
O133        O  0.39158735  0.44284506  0.04578144    -0.78900
O134        O  0.52128325  0.67981959  0.01596830    -0.78900
O135        O  0.46636354  0.50309773  0.07748830    -0.79000
O136        O  0.49399594  0.65400708  0.46120643    -0.78900
O137        O  0.56282177  0.63910726  0.06897753    -0.78900
O138        O  0.35255220  0.48442125  0.99645927    -0.78900
C139        C  0.35341986  0.53096780  0.49526980     1.10800
C140        C  0.58372198  0.61327180  0.08583756     1.10700
C141        C  0.41391527  0.46252754  0.07527631     1.10800
C142        C  0.50245622  0.68678369  0.48665184     1.10700
O143        O  0.53324778  0.57513492  0.44517039    -0.78900
O144        O  0.52383188  0.45352290  0.05143397    -0.79000
O145        O  0.43020256  0.47979627  0.44461277    -0.78900
O146        O  0.63153111  0.62157198  0.01846742    -0.78900
O147        O  0.57597103  0.53315650  0.00039884    -0.78900
O148        O  0.42521574  0.55407898  0.42390910    -0.78900
O149        O  0.59052822  0.66112657  0.46682591    -0.78900
O150        O  0.47362098  0.43602995  0.00047067    -0.78900
Co151      Co  0.46469275  0.57067109  0.46812935     1.51500
Co152      Co  0.51781390  0.51706890  0.03746347     1.51700
Co153      Co  0.42224839  0.47341038  0.99854493     1.51600
Co154      Co  0.57037107  0.64457447  0.01766275     1.51500
O155        O  0.49210135  0.56377116  0.01412490    -1.40800
C156        C  0.57719264  0.62540152  0.44235845     1.10700
C157        C  0.49933572  0.42213082  0.02465932     1.10800
C158        C  0.41677771  0.50427202  0.41988505     1.10700
C159        C  0.62643321  0.57743689  0.00436714     1.10700
C160        C  0.17162880  0.55882825  0.00313969    -0.17300
C161        C  0.21298740  0.55180144  0.00165071     0.06800
C162        C  0.25985868  0.54100152  0.00082799     0.08600
C163        C  0.30090328  0.53346971  0.49943699    -0.18100
C164        C  0.81938988  0.57145181  0.48555939    -0.17300
C165        C  0.77436361  0.57213705  0.48805001     0.06800
C166        C  0.72235994  0.57423342  0.99146598     0.08600
C167        C  0.67837658  0.57607942  0.99594347    -0.18100
C168        C  0.47804307  0.86344939  0.47336012    -0.17300
C169        C  0.47533474  0.81811260  0.47386162     0.06800
C170        C  0.48093661  0.76989823  0.47761188     0.08600
C171        C  0.49015033  0.73152740  0.48197155    -0.18100
C172        C  0.50327836  0.37225966  0.02000507    -0.17300
C173        C  0.50390516  0.32860693  0.01761883     0.06800
C174        C  0.50292001  0.27647183  0.01707193     0.08600
C175        C  0.50209714  0.23194040  0.01889496    -0.18100
C176        C  0.17730572  0.73049797  0.99096547    -0.17300
C177        C  0.22434507  0.77493291  0.98750691     0.06800
C178        C  0.27806787  0.82911249  0.48578925     0.08600
C179        C  0.32260358  0.87638654  0.48529582    -0.18100
C180        C  0.82620509  0.36113616  0.49393365    -0.17300
C181        C  0.78568191  0.31187392  0.49571748     0.06800
C182        C  0.73836678  0.25399138  0.99690930     0.08600
C183        C  0.69531983  0.20610334  0.99850242    -0.18100
C184        C  0.67984251  0.04940976  0.19198902    -0.17300
C185        C  0.65183918  0.05300289  0.16760886     0.06800
C186        C  0.62060168  0.05861753  0.13863132     0.08600
C187        C  0.59603903  0.06255495  0.11254030    -0.18100
C188        C  0.70575391  0.05754500  0.32133684    -0.17300
C189        C  0.68990734  0.06136312  0.35004897     0.06800
C190        C  0.66663433  0.06406570  0.38247680     0.08600
C191        C  0.64119008  0.06306590  0.40855137    -0.18100
C192        C  0.69672338  0.72795066  0.19912538    -0.17300
C193        C  0.67444810  0.69969390  0.17298818     0.06800
C194        C  0.64344281  0.66501215  0.14363991     0.08600
C195        C  0.61554794  0.63797357  0.11811022    -0.18100
C196        C  0.60613624  0.64568596  0.40956354    -0.17300
C197        C  0.62811443  0.67024824  0.38258583     0.06800
C198        C  0.65314282  0.70362443  0.35221089     0.08600
C199        C  0.67642250  0.73252465  0.32665568    -0.18100
C200        C  0.74913938  0.90302798  0.24497099    -0.15200
C201        C  0.75350976  0.94381775  0.26663888    -0.30400
H202        H  0.74985021  0.90934064  0.21677172     0.13800
H203        H  0.75819404  0.93946049  0.29469678     0.14400
C204        C  0.00017872  0.70185657  0.08301094    -0.17300
C205        C  0.99789887  0.72663306  0.10840212     0.06800
C206        C  0.99675102  0.75025259  0.14104536     0.08600
C207        C  0.99693805  0.76680652  0.17031762    -0.18100
C208        C  0.01008661  0.74694655  0.30059563    -0.17300
C209        C  0.01253856  0.72675620  0.32858812     0.06800
C210        C  0.01308466  0.70570140  0.36272418     0.08600
C211        C  0.01020297  0.68621274  0.39180450    -0.18100
C212        C  0.86776669  0.82369761  0.26786679    -0.15200
C213        C  0.89491745  0.82124821  0.23926333    -0.30400
H214        H  0.88936536  0.82871459  0.29332629     0.13800
H215        H  0.87553808  0.81736591  0.21326511     0.14400
C216        C  0.32016914  0.06681661  0.18638107    -0.17300
C217        C  0.33813771  0.06249797  0.15849529     0.06800
C218        C  0.35979862  0.05709034  0.12610844     0.08600
C219        C  0.37944481  0.05437536  0.09844803    -0.18100
C220        C  0.32797368  0.07977562  0.31730890    -0.17300
C221        C  0.34796567  0.08251219  0.34650564     0.06800
C222        C  0.36853370  0.08185508  0.38099744     0.08600
C223        C  0.38784758  0.07780752  0.40918267    -0.18100
C224        C  0.15963934  0.94684453  0.24172791    -0.15200
C225        C  0.10357051  0.93179640  0.23428072    -0.30400
H226        H  0.16878047  0.91313400  0.24819415     0.13800
H227        H  0.09267720  0.96411331  0.22742235     0.14400
C228        C  0.38051260  0.43452765  0.10585402    -0.17300
C229        C  0.35184245  0.40407948  0.12973224     0.06800
C230        C  0.32052684  0.36678645  0.15763810     0.08600
C231        C  0.29806533  0.33973927  0.18386968    -0.18100
C232        C  0.31348890  0.37596180  0.30991072    -0.17300
C233        C  0.34106530  0.40880640  0.33336895     0.06800
C234        C  0.37152909  0.44619245  0.36153849     0.08600
C235        C  0.39461845  0.47529764  0.38713136    -0.18100
C236        C  0.22981705  0.15234868  0.23743515    -0.15200
C237        C  0.21680489  0.17833162  0.26219990    -0.30400
H238        H  0.23945620  0.16949591  0.21093892     0.13800
H239        H  0.20762312  0.15989337  0.28844580     0.14400
C240        C  0.99553069  0.43781610  0.09912991    -0.17300
C241        C  0.99163043  0.41161105  0.12580781     0.06800
C242        C  0.98945613  0.38505234  0.15844378     0.08600
C243        C  0.98988424  0.36484926  0.18681033    -0.18100
C244        C  0.00806702  0.43081246  0.40697020    -0.17300
C245        C  0.00780999  0.40980094  0.37933215     0.06800
C246        C  0.00401219  0.38593826  0.34605736     0.08600
C247        C  0.00092611  0.36535085  0.31774035    -0.18100
C248        C  0.11804114  0.32685902  0.23743235    -0.15200
C249        C  0.12803202  0.28344060  0.23725666    -0.30400
H250        H  0.15579518  0.37062828  0.23949402     0.13800
H251        H  0.09152093  0.23906835  0.23591079     0.14400
C252        C  0.90542641  0.19256446  0.23932477    -0.15200
C253        C  0.86942385  0.15144760  0.26216595    -0.30400
H254        H  0.89683465  0.18547914  0.21134740     0.13800
H255        H  0.88086587  0.15678418  0.28993197     0.14400
C256        C  0.00089441  0.33917546  0.78437408     0.87700
C257        C  0.05933159  0.34269610  0.77883576    -0.52500
C258        C  0.06130881  0.31855811  0.74836579     0.10600
C259        C  0.00385102  0.29250561  0.72600904     0.21600
C260        C  0.99176154  0.36732926  0.75154724    -0.53200
C261        C  0.99349775  0.34282055  0.72094892     0.10700
C262        C  0.95340875  0.27523237  0.78154071    -0.52800
C263        C  0.95420898  0.25042244  0.75074674     0.11300
H264        H  0.09699694  0.36442668  0.79686782     0.15800
H265        H  0.00555685  0.27307004  0.70101763     0.01600
H266        H  0.98582124  0.40386556  0.75238123     0.16100
H267        H  0.91984399  0.25303561  0.80120584     0.15900
C268        C  0.27954574  0.33693309  0.78110391     0.87700
C269        C  0.26513034  0.27549065  0.78684062    -0.52500
C270        C  0.23371410  0.23920061  0.75980009     0.10600
C271        C  0.21918883  0.26820127  0.72929929     0.21600
C272        C  0.31117005  0.35609505  0.74630535    -0.53200
C273        C  0.27953260  0.32080779  0.71909417     0.10700
C274        C  0.21985647  0.33135959  0.77422536    -0.52800
C275        C  0.18787765  0.29539048  0.74699512     0.11300
H276        H  0.27880117  0.26177023  0.81023757     0.15800
H277        H  0.19349942  0.23910115  0.70716408     0.01600
H278        H  0.35328554  0.39610055  0.74301048     0.16100
H279        H  0.20383669  0.35319853  0.78992775     0.15900
C280        C  0.29622714  0.07247505  0.78375048     0.87700
C281        C  0.23942377  0.01379229  0.78096388    -0.52500
C282        C  0.20770264  0.00567422  0.75064876     0.10600
C283        C  0.23585802  0.05816992  0.72570169     0.21600
C284        C  0.33043803  0.07738711  0.75069438    -0.53200
C285        C  0.29860697  0.06958352  0.72028160     0.10700
C286        C  0.27728335  0.11608411  0.77862641    -0.52800
C287        C  0.24560625  0.10923648  0.74826423     0.11300
H288        H  0.22684852  0.98007126  0.80053740     0.15800
H289        H  0.21024774  0.05182471  0.70092734     0.01600
H290        H  0.37478481  0.08453765  0.75130446     0.16100
H291        H  0.29038300  0.15114847  0.79688856     0.15900
C292        C  0.00588611  0.77822166  0.76985287     0.87700
C293        C  0.95160821  0.78364694  0.77079086    -0.52500
C294        C  0.94717408  0.81476779  0.74362076     0.10600
C295        C  0.99843535  0.83734051  0.71758757     0.21600
C296        C  0.00260382  0.75216956  0.73389908    -0.53200
C297        C  0.99866093  0.78315841  0.70647212     0.10700
C298        C  0.05815505  0.83984182  0.76799151    -0.52800
C299        C  0.05529438  0.87119580  0.74042264     0.11300
H300        H  0.91847279  0.76280808  0.79086346     0.15800
H301        H  0.99534507  0.86247075  0.69530356     0.01600
H302        H  0.00376113  0.71324402  0.73041633     0.16100
H303        H  0.09422207  0.85729309  0.78723678     0.15900
C304        C  0.70906942  0.76391710  0.79545313     0.88900
C305        C  0.71161578  0.82054907  0.78774130    -0.52500
C306        C  0.74318506  0.84860902  0.75846176     0.10600
C307        C  0.76890330  0.81649714  0.73974845     0.21600
C308        C  0.68396034  0.72830788  0.76205012    -0.53200
C309        C  0.71503045  0.75558392  0.73290514     0.10700
C310        C  0.77343030  0.78032272  0.79783200    -0.52800
C311        C  0.80523105  0.80762176  0.76880493     0.11300
H312        H  0.68951568  0.83628771  0.80354498     0.15800
H313        H  0.79421911  0.83870706  0.71591243     0.01600
H314        H  0.64494364  0.68516707  0.76147359     0.16100
H315        H  0.79219363  0.77023147  0.82049228     0.15900
C316        C  0.71473609  0.04862533  0.72249401     0.87700
C317        C  0.71927122  0.99475226  0.72561696    -0.52500
C318        C  0.75096090  0.99479479  0.75460520     0.10600
C319        C  0.77564883  0.04949168  0.77727685     0.21600
C320        C  0.68922684  0.05211883  0.75739968    -0.53200
C321        C  0.72127105  0.05272147  0.78604693     0.10700
C322        C  0.77876973  0.09954878  0.72308398    -0.52800
C323        C  0.81101007  0.10055819  0.75200211     0.11300
H324        H  0.69660048  0.95867808  0.70769142     0.15800
H325        H  0.80136165  0.04995451  0.80087153     0.01600
H326        H  0.64973657  0.05452912  0.75926275     0.16100
H327        H  0.79529426  0.13370993  0.70361841     0.15900
O328        O  0.46883596  0.08026231  0.93517637    -0.78900
O329        O  0.59329110  0.15633557  0.49673320    -0.78900
O330        O  0.46958968  0.13567065  0.50449292    -0.78900
O331        O  0.60078932  0.02785324  0.96397056    -0.78900
O332        O  0.53682626  0.17862827  0.54705154    -0.79000
O333        O  0.56535397  0.07090939  0.93151069    -0.78900
O334        O  0.63573221  0.10852990  0.01498763    -0.78900
O335        O  0.38970129  0.04313423  0.96622169    -0.78900
C336        C  0.41679923  0.06852388  0.93861111     1.10800
C337        C  0.63909332  0.15396745  0.50247031     1.10700
C338        C  0.50255904  0.18006099  0.52401790     1.10800
C339        C  0.60233206  0.05559550  0.93652982     1.10700
O340        O  0.49418395  0.94989249  0.94975462    -0.78900
O341        O  0.45912926  0.06777536  0.56429207    -0.79000
O342        O  0.39255687  0.96194825  0.51341884    -0.78900
O343        O  0.54404471  0.01892489  0.56088899    -0.78900
O344        O  0.57839296  0.11022559  0.56603681    -0.78900
O345        O  0.39775180  0.95690623  0.95578898    -0.78900
O346        O  0.50658919  0.94366894  0.00686229    -0.78900
O347        O  0.37542577  0.04724856  0.53709757    -0.78900
Co348      Co  0.48327731  0.01760742  0.94557921     1.51500
Co349      Co  0.52578737  0.11059462  0.52711335     1.51700
Co350      Co  0.43473184  0.04666097  0.51057398     1.51600
Co351      Co  0.56740660  0.02523547  0.01153273     1.51500
O352        O  0.50567937  0.04435314  0.49580654    -1.40800
C353        C  0.49164656  0.92107306  0.97688632     1.10700
C354        C  0.40524305  0.05632869  0.56528834     1.10800
C355        C  0.37399639  0.93386773  0.98500711     1.10700
C356        C  0.57043358  0.06382846  0.57902687     1.10700
O357        O  0.88309769  0.44679985  0.96272248    -0.78900
O358        O  0.99600783  0.61760210  0.56782401    -0.78900
O359        O  0.01806233  0.46738234  0.54013260    -0.78900
O360        O  0.91922425  0.60838408  0.49905436    -0.78900
O361        O  0.99523181  0.51646236  0.57463247    -0.79000
O362        O  0.87817549  0.54121169  0.96024686    -0.78900
O363        O  0.02013513  0.68246423  0.52633305    -0.78900
O364        O  0.91894472  0.43687308  0.51138766    -0.78900
C365        C  0.87734431  0.41770596  0.98966274     1.10800
C366        C  0.00464578  0.66566044  0.55767601     1.10700
C367        C  0.00250533  0.47477855  0.56990180     1.10800
C368        C  0.87434192  0.57334702  0.98177246     1.10700
O369        O  0.99286028  0.60617105  0.92564920    -0.78900
O370        O  0.10512168  0.56808317  0.53751017    -0.79000
O371        O  0.99918425  0.43606171  0.96784040    -0.78900
O372        O  0.08233748  0.65460417  0.47468142    -0.78900
O373        O  0.10589086  0.66758958  0.53043585    -0.78900
O374        O  0.00016502  0.50364421  0.93350078    -0.78900
O375        O  0.00194608  0.68223268  0.95316792    -0.78900
O376        O  0.08217115  0.54728194  0.48233667    -0.78900
Co377      Co  0.94508696  0.52882440  0.95280618     1.51500
Co378      Co  0.04551030  0.58972966  0.54956585     1.51700
Co379      Co  0.99828911  0.49385500  0.49486445     1.51600
Co380      Co  0.99884814  0.62738451  0.48581300     1.51500
O381        O  0.98669997  0.55620247  0.50659380    -1.40800
C382        C  0.00081657  0.65730990  0.92506922     1.10700
C383        C  0.11864798  0.56045231  0.50739114     1.10800
C384        C  0.00160249  0.45707947  0.93745849     1.10700
C385        C  0.12003127  0.68115605  0.49877502     1.10700
O386        O  0.40074170  0.57578635  0.98877575    -0.78900
O387        O  0.58023115  0.56877580  0.57307532    -0.78900
O388        O  0.39161089  0.44290691  0.54579865    -0.78900
O389        O  0.52129865  0.67984744  0.51593585    -0.78900
O390        O  0.46640424  0.50316868  0.57749121    -0.79000
O391        O  0.49399079  0.65400452  0.96123550    -0.78900
O392        O  0.56284843  0.63915437  0.56895435    -0.78900
O393        O  0.35256671  0.48444154  0.49646122    -0.78900
C394        C  0.35340196  0.53094691  0.99528103     1.10800
C395        C  0.58375617  0.61332947  0.58581858     1.10700
C396        C  0.41395097  0.46260818  0.57528841     1.10800
C397        C  0.50245109  0.68677186  0.98668579     1.10700
O398        O  0.53323301  0.57513347  0.94518453    -0.78900
O399        O  0.52385390  0.45356397  0.55144963    -0.79000
O400        O  0.43020050  0.47981121  0.94460539    -0.78900
O401        O  0.63154366  0.62159156  0.51844455    -0.78900
O402        O  0.57597719  0.53316467  0.50039424    -0.78900
O403        O  0.42520732  0.55410096  0.92392460    -0.78900
O404        O  0.59052053  0.66111648  0.96685001    -0.78900
O405        O  0.47361819  0.43603043  0.50049366    -0.78900
Co406      Co  0.46467802  0.57066586  0.96814651     1.51500
Co407      Co  0.51783582  0.51710521  0.53746258     1.51700
Co408      Co  0.42225881  0.47342756  0.49855385     1.51600
Co409      Co  0.57038744  0.64460111  0.51763860     1.51500
O410        O  0.49211923  0.56379699  0.51411189    -1.40800
C411        C  0.57718292  0.62539774  0.94237794     1.10700
C412        C  0.49934621  0.42215013  0.52468464     1.10800
C413        C  0.41677802  0.50430059  0.91988575     1.10700
C414        C  0.62644081  0.57744658  0.50435441     1.10700
C415        C  0.17165067  0.55884863  0.50313136    -0.17300
C416        C  0.21301294  0.55182893  0.50164139     0.06800
C417        C  0.25988461  0.54103164  0.50081901     0.08600
C418        C  0.30087961  0.53344156  0.99944689    -0.18100
C419        C  0.81939098  0.57147219  0.98554230    -0.17300
C420        C  0.77436324  0.57215240  0.98803898     0.06800
C421        C  0.72236238  0.57422561  0.49146710     0.08600
C422        C  0.67838123  0.57607934  0.49593665    -0.18100
C423        C  0.47804475  0.86344266  0.97339926    -0.17300
C424        C  0.47534916  0.81811240  0.97390598     0.06800
C425        C  0.48095390  0.76990083  0.97765676     0.08600
C426        C  0.49015983  0.73152503  0.98201271    -0.18100
C427        C  0.50329457  0.37227699  0.52004283    -0.17300
C428        C  0.50393909  0.32863093  0.51766375     0.06800
C429        C  0.50297766  0.27650501  0.51711568     0.08600
C430        C  0.50216467  0.23197627  0.51892894    -0.18100
C431        C  0.17730983  0.73053135  0.49098398    -0.17300
C432        C  0.22434539  0.77497198  0.48751578     0.06800
C433        C  0.27806434  0.82907196  0.98579842     0.08600
C434        C  0.32259286  0.87634809  0.98531691    -0.18100
C435        C  0.82619281  0.36113497  0.99389978    -0.17300
C436        C  0.78566948  0.31187073  0.99568868     0.06800
C437        C  0.73838776  0.25399416  0.49692410     0.08600
C438        C  0.69534800  0.20610318  0.49850597    -0.18100
C439        C  0.67982669  0.04937621  0.69199153    -0.17300
C440        C  0.65183292  0.05296830  0.66760611     0.06800
C441        C  0.62060652  0.05858426  0.63862390     0.08600
C442        C  0.59605422  0.06252602  0.61252994    -0.18100
C443        C  0.70569259  0.05752613  0.82134212    -0.17300
C444        C  0.68984637  0.06134007  0.85005507     0.06800
C445        C  0.66658114  0.06403699  0.88248676     0.08600
C446        C  0.64114436  0.06303647  0.90856472    -0.18100
C447        C  0.69671896  0.72798044  0.69912570    -0.17300
C448        C  0.67445336  0.69974484  0.67297998     0.06800
C449        C  0.64346489  0.66507788  0.64362322     0.08600
C450        C  0.61558073  0.63804117  0.61809034    -0.18100
C451        C  0.60613329  0.64568375  0.90958445    -0.17300
C452        C  0.62811327  0.67023290  0.88260359     0.06800
C453        C  0.65314265  0.70359284  0.85222283     0.08600
C454        C  0.67642165  0.73248750  0.82666534    -0.18100
C455        C  0.74911679  0.90301195  0.74499994    -0.15200
C456        C  0.75347450  0.94379534  0.76666773    -0.30400
H457        H  0.74982861  0.90932623  0.71680070     0.13800
H458        H  0.75815854  0.93943942  0.79472603     0.14400
C459        C  0.00013137  0.70180373  0.58302794    -0.17300
C460        C  0.99783711  0.72658512  0.60841156     0.06800
C461        C  0.99669203  0.75022798  0.64104550     0.08600
C462        C  0.99689626  0.76680517  0.67031308    -0.18100
C463        C  0.01012478  0.74698419  0.80058496    -0.17300
C464        C  0.01258639  0.72679552  0.82857567     0.06800
C465        C  0.01313373  0.70573871  0.86271033     0.08600
C466        C  0.01024249  0.68624405  0.89178951    -0.18100
C467        C  0.86776780  0.82370401  0.76787558    -0.15200
C468        C  0.89491830  0.82126107  0.73927019    -0.30400
H469        H  0.88936906  0.82872488  0.79333342     0.13800
H470        H  0.87553498  0.81737404  0.71327538     0.14400
C471        C  0.32018689  0.06681552  0.68637343    -0.17300
C472        C  0.33815737  0.06248967  0.65848980     0.06800
C473        C  0.35982387  0.05707968  0.62610505     0.08600
C474        C  0.37947718  0.05437074  0.59844552    -0.18100
C475        C  0.32794000  0.07974500  0.81730522    -0.17300
C476        C  0.34790570  0.08245917  0.84650728     0.06800
C477        C  0.36845114  0.08178258  0.88100286     0.08600
C478        C  0.38776195  0.07773035  0.90918838    -0.18100
C479        C  0.15964054  0.94687305  0.74168820    -0.15200
C480        C  0.10356432  0.93182416  0.73426284    -0.30400
H481        H  0.16878901  0.91316782  0.74813302     0.13800
H482        H  0.09266219  0.96413421  0.72742949     0.14400
C483        C  0.38055440  0.43463604  0.60587166    -0.17300
C484        C  0.35187604  0.40418964  0.62974763     0.06800
C485        C  0.32054370  0.36687913  0.65764237     0.08600
C486        C  0.29807272  0.33981091  0.68386579    -0.18100
C487        C  0.31352412  0.37600906  0.80990539    -0.17300
C488        C  0.34110011  0.40886061  0.83336027     0.06800
C489        C  0.37155570  0.44625046  0.86152869     0.08600
C490        C  0.39463360  0.47534946  0.88712476    -0.18100
C491        C  0.22986589  0.15239635  0.73742265    -0.15200
C492        C  0.21685801  0.17838181  0.76218879    -0.30400
H493        H  0.23950485  0.16954277  0.71092841     0.13800
H494        H  0.20767384  0.15994235  0.78843405     0.14400
C495        C  0.99556516  0.43779290  0.59913313    -0.17300
C496        C  0.99165500  0.41157750  0.62580837     0.06800
C497        C  0.98946493  0.38500809  0.65844314     0.08600
C498        C  0.98987759  0.36479997  0.68681081    -0.18100
C499        C  0.00804387  0.43081387  0.90696502    -0.17300
C500        C  0.00776606  0.40978926  0.87932865     0.06800
C501        C  0.00394677  0.38591409  0.84605637     0.08600
C502        C  0.00085488  0.36531999  0.81774164    -0.18100
C503        C  0.11802733  0.32685639  0.73747159    -0.15200
C504        C  0.12804065  0.28345351  0.73727510    -0.30400
H505        H  0.15577076  0.37063142  0.73954797     0.13800
H506        H  0.09154022  0.23907498  0.73591022     0.14400
C507        C  0.90540138  0.19251874  0.73934343    -0.15200
C508        C  0.86938430  0.15141457  0.76218654    -0.30400
H509        H  0.89682310  0.18542070  0.71136493     0.13800
H510        H  0.88081126  0.15676131  0.78995307     0.14400
loop_ 
_geom_bond_atom_site_label_1 
_geom_bond_atom_site_label_2 
_geom_bond_distance 
_geom_bond_site_symmetry_2 
_ccdc_geom_bond_type 
C1            C2   1.521       .  S
C1            C7   1.530   1_455  S
C1            C5   1.537   1_455  S
C1          C247   1.469       .  S
C2            H9   1.087       .  S
C2            C3   1.360       .  D
C3            C4   1.541       .  S
C3          C248   1.469       .  S
C4            C8   1.546   1_455  S
C4            C6   1.540   1_455  S
C4           H10   1.111       .  S
C5           H11   1.086       .  S
C5            C6   1.368       .  D
C6          C243   1.447       .  S
C7           H12   1.086       .  S
C7            C8   1.371       .  D
C8          C252   1.488       .  S
C13          C14   1.523       .  S
C13          C19   1.525       .  S
C13          C17   1.522       .  S
C13         C232   1.462       .  S
C14          H21   1.087       .  S
C14          C15   1.365       .  D
C15          C16   1.546       .  S
C15         C237   1.475       .  S
C16          C20   1.542       .  S
C16          C18   1.544       .  S
C16          H22   1.111       .  S
C17          H23   1.087       .  S
C17          C18   1.361       .  D
C18         C231   1.436       .  S
C19          H24   1.087       .  S
C19          C20   1.371       .  D
C20         C249   1.481       .  S
C25          C26   1.523       .  S
C25          C31   1.520       .  S
C25          C29   1.536       .  S
C25         C220   1.471       .  S
C26          H33   1.088   1_545  S
C26          C27   1.363       .  D
C27          C28   1.545       .  S
C27         C224   1.473   1_545  S
C28          C32   1.547       .  S
C28          C30   1.543       .  S
C28          H34   1.111       .  S
C29          H35   1.086       .  S
C29          C30   1.369       .  D
C30         C216   1.447       .  S
C31          H36   1.087       .  S
C31          C32   1.370       .  D
C32         C236   1.488       .  S
C37          C38   1.522   1_455  S
C37          C43   1.522       .  S
C37          C41   1.534       .  S
C37         C208   1.474       .  S
C38          H45   1.086       .  S
C38          C39   1.370       .  D
C39          C40   1.546       .  S
C39         C213   1.490       .  S
C40          C44   1.546   1_655  S
C40          C42   1.545       .  S
C40          H46   1.111       .  S
C41          H47   1.087       .  S
C41          C42   1.370   1_455  D
C42         C207   1.449       .  S
C43          H48   1.086       .  S
C43          C44   1.370       .  D
C44         C225   1.489       .  S
C49          C50   1.532       .  S
C49          C55   1.522       .  S
C49          C53   1.527       .  S
C49         C199   1.465       .  S
C50          H57   1.086       .  S
C50          C51   1.373       .  D
C51          C52   1.551       .  S
C51         C200   1.490       .  S
C52          C56   1.547       .  S
C52          C54   1.543       .  S
C52          H58   1.111       .  S
C53          H59   1.087       .  S
C53          C54   1.360       .  D
C54         C192   1.442       .  S
C55          H60   1.088       .  S
C55          C56   1.363       .  D
C56         C212   1.479       .  S
C61          C62   1.536   1_545  S
C61          C67   1.532       .  S
C61          C65   1.535       .  S
C61         C184   1.475       .  S
C62          H69   1.085       .  S
C62          C63   1.371       .  D
C63          C64   1.546   1_565  S
C63         C201   1.490       .  S
C64          C68   1.545       .  S
C64          C66   1.535       .  S
C64          H70   1.111       .  S
C65          H71   1.087       .  S
C65          C66   1.362       .  D
C66         C188   1.446       .  S
C67          H72   1.085       .  S
C67          C68   1.370       .  D
C68         C253   1.488       .  S
O73          C81   1.253       .  A
O73         Co93   1.966       .  S
O74          C82   1.262   1_556  A
O74         Co94   1.957   1_556  S
O75          C83   1.293       .  A
O75         Co95   2.107       .  S
O76          C84   1.270       .  A
O76         Co96   2.023       .  S
O77          C83   1.263       .  A
O77         Co94   1.888       .  S
O78          C84   1.259       .  A
O78         Co93   1.967       .  S
O79         C337   1.279       .  A
O79         Co96   2.038       .  S
O80          C81   1.265       .  A
O80        Co350   2.020       .  S
C81         C223   1.436       .  S
C82         O334   1.279       .  A
C82         C183   1.435   1_554  S
C83         C175   1.429       .  S
C84         C191   1.439       .  S
O85          C98   1.271       .  A
O85         Co93   2.013   1_565  S
O86          C99   1.295       .  A
O86         Co94   2.102       .  S
O87         C355   1.269   1_554  A
O87         Co95   1.972   1_565  S
O88         C101   1.254       .  A
O88        Co351   1.975       .  S
O89         C101   1.262       .  A
O89         Co94   2.015       .  S
O90         C100   1.278       .  A
O90         Co93   2.034   1_565  S
O91          C98   1.260       .  A
O91         Co96   1.956   1_565  S
O92          C99   1.266       .  A
O92         Co95   1.899       .  S
Co93        O352   2.023       .  S
Co94         O97   1.999   1_554  S
Co95        O335   2.020   1_554  S
Co95         O97   2.009   1_554  S
Co96        O343   1.975       .  S
Co96        O352   2.034       .  S
O97        Co348   2.023       .  S
O97        Co351   2.034   1_556  S
C98         C168   1.423       .  S
C99         C219   1.440       .  S
C100        O342   1.269       .  A
C100        C179   1.443       .  S
C101        C187   1.441       .  S
O102        C110   1.250       .  A
O102       Co122   2.002       .  S
O103        C111   1.261   1_655  A
O103       Co123   1.971   1_655  S
O104        C112   1.272       .  A
O104       Co124   2.021   1_454  S
O105        C368   1.247       .  A
O105       Co125   1.971       .  S
O106        C112   1.263   1_655  A
O106       Co123   1.975   1_655  S
O107        C113   1.253       .  A
O107       Co122   1.998       .  S
O108        C111   1.273       .  A
O108       Co125   2.026   1_454  S
O109        C365   1.241   1_554  A
O109       Co124   1.965   1_554  S
C110        O364   1.241       .  A
C110        C180   1.436       .  S
C111        C204   1.442       .  S
C112        C240   1.440   1_455  S
C113        O360   1.247       .  A
C113        C164   1.442       .  S
O114        C127   1.295   1_655  A
O114       Co122   2.080       .  S
O115        C128   1.265       .  A
O115       Co123   2.018       .  S
O116        C129   1.273   1_655  A
O116       Co379   1.906       .  S
O117        C130   1.260       .  A
O117       Co125   1.989   1_455  S
O118        C130   1.265   1_554  A
O118       Co123   2.015       .  S
O119        C129   1.295       .  A
O119       Co122   2.064   1_455  S
O120        C127   1.269       .  A
O120       Co380   1.898   1_455  S
O121        C128   1.257   1_556  A
O121       Co124   1.986   1_455  S
Co122       O381   2.249       .  S
Co123       O126   2.094   1_455  S
Co124       O371   1.906       .  S
Co124       O126   1.937   1_556  S
Co125       O375   1.898   1_655  S
Co125       O126   1.950   1_556  S
O126       Co377   2.249   1_554  S
C127        C211   1.440       .  S
C128        C160   1.442       .  S
C129        C244   1.435       .  S
C130        C176   1.443       .  S
O131        C139   1.239       .  A
O131       Co151   1.957       .  S
O132        C140   1.271       .  A
O132       Co152   2.020       .  S
O133        C141   1.248       .  A
O133       Co153   1.981   1_554  S
O134        C397   1.264   1_554  A
O134       Co154   1.979       .  S
O135        C141   1.247       .  A
O135       Co152   1.971       .  S
O136        C142   1.264       .  A
O136       Co151   1.994       .  S
O137        C140   1.261       .  A
O137       Co154   1.969       .  S
O138        C394   1.255       .  A
O138       Co153   2.020       .  S
C139        O393   1.255       .  A
C139        C163   1.442       .  S
C140        C195   1.436       .  S
C141        C228   1.431       .  S
C142        O389   1.264       .  A
C142        C171   1.424       .  S
O143        C156   1.257       .  A
O143       Co151   1.983       .  S
O144        C157   1.269       .  A
O144       Co152   1.886       .  S
O145        C158   1.293       .  A
O145       Co408   2.070       .  S
O146        C159   1.265       .  A
O146       Co154   2.019       .  S
O147        C159   1.256       .  A
O147       Co152   1.989       .  S
O148        C158   1.265       .  A
O148       Co151   1.894       .  S
O149        C156   1.263       .  A
O149       Co409   2.005       .  S
O150        C157   1.298       .  A
O150       Co153   2.082   1_554  S
Co151       O410   1.926       .  S
Co152       O155   1.927       .  S
Co153       O400   2.070       .  S
Co153       O155   2.252   1_556  S
Co154       O404   2.005   1_554  S
Co154       O155   2.097       .  S
O155       Co406   1.926   1_554  S
C156        C196   1.430       .  S
C157        C172   1.429       .  S
C158        C235   1.428       .  S
C159        C167   1.441   1_554  S
C160        C161   1.210       .  T
C161        C162   1.419       .  S
C162        C418   1.210   1_554  T
C163        C417   1.210       .  T
C164        C165   1.210       .  T
C165        C421   1.418       .  S
C166        C167   1.209       .  T
C166        C420   1.418       .  S
C168        C169   1.199       .  T
C169        C170   1.401       .  S
C170        C171   1.199       .  T
C172        C173   1.202       .  T
C173        C174   1.407       .  S
C174        C175   1.202       .  T
C176        C177   1.210       .  T
C177        C433   1.420       .  S
C178        C179   1.211       .  T
C178        C432   1.420       .  S
C180        C181   1.206       .  T
C181        C437   1.413       .  S
C182        C183   1.206       .  T
C182        C436   1.413       .  S
C184        C185   1.210       .  T
C185        C186   1.418       .  S
C186        C187   1.209       .  T
C188        C189   1.208       .  T
C189        C190   1.416       .  S
C190        C191   1.208       .  T
C192        C193   1.206       .  T
C193        C194   1.414       .  S
C194        C195   1.207       .  T
C196        C197   1.203       .  T
C197        C198   1.409       .  S
C198        C199   1.204       .  T
C200        H202   1.086       .  S
C200        C201   1.349       .  D
C201        H203   1.086       .  S
C204        C205   1.210   1_455  T
C205        C206   1.419       .  S
C206        C207   1.210       .  T
C208        C209   1.209       .  T
C209        C210   1.417       .  S
C210        C211   1.209       .  T
C212        H214   1.088       .  S
C212        C213   1.344       .  D
C213        H215   1.086       .  S
C216        C217   1.209       .  T
C217        C218   1.417       .  S
C218        C219   1.209       .  T
C220        C221   1.208       .  T
C221        C222   1.415       .  S
C222        C223   1.207       .  T
C224        H226   1.088       .  S
C224        C225   1.343       .  D
C225        H227   1.086       .  S
C228        C229   1.204       .  T
C229        C230   1.409       .  S
C230        C231   1.203       .  T
C232        C233   1.202       .  T
C233        C234   1.406       .  S
C234        C235   1.202       .  T
C236        H238   1.086       .  S
C236        C237   1.344       .  D
C237        H239   1.088       .  S
C240        C241   1.209       .  T
C241        C242   1.417       .  S
C242        C243   1.209       .  T
C244        C245   1.206       .  T
C245        C246   1.413       .  S
C246        C247   1.206       .  T
C248        H250   1.087       .  S
C248        C249   1.340       .  D
C249        H251   1.086       .  S
C252        H254   1.085       .  S
C252        C253   1.349       .  D
C253        H255   1.085       .  S
C256        C257   1.521       .  S
C256        C262   1.530   1_455  S
C256        C260   1.537   1_455  S
C256        C502   1.469       .  S
C257        H264   1.087       .  S
C257        C258   1.360       .  D
C258        C259   1.541       .  S
C258        C503   1.469       .  S
C259        C263   1.546   1_455  S
C259        C261   1.540   1_455  S
C259        H265   1.111       .  S
C260        H266   1.086       .  S
C260        C261   1.368       .  D
C261        C498   1.447       .  S
C262        H267   1.086       .  S
C262        C263   1.371       .  D
C263        C507   1.488       .  S
C268        C269   1.523       .  S
C268        C274   1.525       .  S
C268        C272   1.522       .  S
C268        C487   1.462       .  S
C269        H276   1.087       .  S
C269        C270   1.365       .  D
C270        C271   1.546       .  S
C270        C492   1.475       .  S
C271        C275   1.542       .  S
C271        C273   1.544       .  S
C271        H277   1.111       .  S
C272        H278   1.087       .  S
C272        C273   1.361       .  D
C273        C486   1.436       .  S
C274        H279   1.087       .  S
C274        C275   1.371       .  D
C275        C504   1.482       .  S
C280        C281   1.523       .  S
C280        C286   1.520       .  S
C280        C284   1.536       .  S
C280        C475   1.471       .  S
C281        H288   1.088   1_545  S
C281        C282   1.363       .  D
C282        C283   1.545       .  S
C282        C479   1.473   1_545  S
C283        C287   1.547       .  S
C283        C285   1.543       .  S
C283        H289   1.111       .  S
C284        H290   1.086       .  S
C284        C285   1.369       .  D
C285        C471   1.447       .  S
C286        H291   1.087       .  S
C286        C287   1.370       .  D
C287        C491   1.488       .  S
C292        C293   1.522   1_455  S
C292        C298   1.522       .  S
C292        C296   1.534       .  S
C292        C463   1.474       .  S
C293        H300   1.087       .  S
C293        C294   1.370       .  D
C294        C295   1.546       .  S
C294        C468   1.490       .  S
C295        C299   1.546   1_655  S
C295        C297   1.545       .  S
C295        H301   1.111       .  S
C296        H302   1.087       .  S
C296        C297   1.370   1_455  D
C297        C462   1.449       .  S
C298        H303   1.086       .  S
C298        C299   1.370       .  D
C299        C480   1.489       .  S
C304        C305   1.532       .  S
C304        C310   1.522       .  S
C304        C308   1.527       .  S
C304        C454   1.465       .  S
C305        H312   1.086       .  S
C305        C306   1.373       .  D
C306        C307   1.551       .  S
C306        C455   1.490       .  S
C307        C311   1.547       .  S
C307        C309   1.543       .  S
C307        H313   1.111       .  S
C308        H314   1.087       .  S
C308        C309   1.360       .  D
C309        C447   1.442       .  S
C310        H315   1.088       .  S
C310        C311   1.363       .  D
C311        C467   1.479       .  S
C316        C317   1.536   1_545  S
C316        C322   1.532       .  S
C316        C320   1.535       .  S
C316        C439   1.475       .  S
C317        H324   1.086       .  S
C317        C318   1.371       .  D
C318        C319   1.546   1_565  S
C318        C456   1.490       .  S
C319        C323   1.544       .  S
C319        C321   1.535       .  S
C319        H325   1.111       .  S
C320        H326   1.087       .  S
C320        C321   1.362       .  D
C321        C443   1.446       .  S
C322        H327   1.085       .  S
C322        C323   1.370       .  D
C323        C508   1.488       .  S
O328        C336   1.253       .  A
O328       Co348   1.966       .  S
O329        C337   1.262       .  A
O329       Co349   1.957       .  S
O330        C338   1.293       .  A
O330       Co350   2.107       .  S
O331        C339   1.270       .  A
O331       Co351   2.023   1_556  S
O332        C338   1.263       .  A
O332       Co349   1.888       .  S
O333        C339   1.259       .  A
O333       Co348   1.967       .  S
O334       Co351   2.038       .  S
O335        C336   1.265       .  A
C336        C478   1.437       .  S
C337        C438   1.434       .  S
C338        C430   1.429       .  S
C339        C446   1.439       .  S
O340        C353   1.271       .  A
O340       Co348   2.013   1_565  S
O341        C354   1.295       .  A
O341       Co349   2.102       .  S
O342       Co350   1.972   1_565  S
O343        C356   1.254       .  A
O344        C356   1.262       .  A
O344       Co349   2.014       .  S
O345        C355   1.278       .  A
O345       Co348   2.034   1_565  S
O346        C353   1.260   1_554  A
O346       Co351   1.956   1_565  S
O347        C354   1.266       .  A
O347       Co350   1.899       .  S
Co349       O352   1.999       .  S
Co350       O352   2.009       .  S
C353        C423   1.423       .  S
C354        C474   1.440       .  S
C355        C434   1.443       .  S
C356        C442   1.441       .  S
O357        C365   1.250       .  A
O357       Co377   2.002       .  S
O358        C366   1.261   1_655  A
O358       Co378   1.971   1_655  S
O359        C367   1.272       .  A
O359       Co379   2.021   1_455  S
O360       Co380   1.971       .  S
O361        C367   1.263   1_655  A
O361       Co378   1.975   1_655  S
O362        C368   1.253       .  A
O362       Co377   1.998       .  S
O363        C366   1.273       .  A
O363       Co380   2.026   1_455  S
O364       Co379   1.965       .  S
C365        C435   1.436       .  S
C366        C459   1.442       .  S
C367        C495   1.440   1_455  S
C368        C419   1.442       .  S
O369        C382   1.295   1_655  A
O369       Co377   2.080       .  S
O370        C383   1.265       .  A
O370       Co378   2.018       .  S
O371        C384   1.273   1_655  A
O372        C385   1.260       .  A
O372       Co380   1.989   1_455  S
O373        C385   1.265       .  A
O373       Co378   2.015       .  S
O374        C384   1.295       .  A
O374       Co377   2.064   1_455  S
O375        C382   1.269       .  A
O376        C383   1.257       .  A
O376       Co379   1.986   1_455  S
Co378       O381   2.094   1_455  S
Co379       O381   1.937       .  S
Co380       O381   1.950       .  S
C382        C466   1.440       .  S
C383        C415   1.442       .  S
C384        C499   1.435       .  S
C385        C431   1.443       .  S
O386        C394   1.239       .  A
O386       Co406   1.957       .  S
O387        C395   1.271       .  A
O387       Co407   2.020       .  S
O388        C396   1.248       .  A
O388       Co408   1.981       .  S
O389       Co409   1.979       .  S
O390        C396   1.247       .  A
O390       Co407   1.971       .  S
O391        C397   1.264       .  A
O391       Co406   1.994       .  S
O392        C395   1.261       .  A
O392       Co409   1.969       .  S
O393       Co408   2.020       .  S
C394        C418   1.442       .  S
C395        C450   1.436       .  S
C396        C483   1.431       .  S
C397        C426   1.424       .  S
O398        C411   1.257       .  A
O398       Co406   1.983       .  S
O399        C412   1.269       .  A
O399       Co407   1.886       .  S
O400        C413   1.293       .  A
O401        C414   1.265       .  A
O401       Co409   2.020       .  S
O402        C414   1.256       .  A
O402       Co407   1.989       .  S
O403        C413   1.265       .  A
O403       Co406   1.894       .  S
O404        C411   1.263       .  A
O405        C412   1.298       .  A
O405       Co408   2.082       .  S
Co407       O410   1.927       .  S
Co408       O410   2.252       .  S
Co409       O410   2.097       .  S
C411        C451   1.430       .  S
C412        C427   1.430       .  S
C413        C490   1.428       .  S
C414        C422   1.441       .  S
C415        C416   1.210       .  T
C416        C417   1.419       .  S
C419        C420   1.210       .  T
C421        C422   1.209       .  T
C423        C424   1.198       .  T
C424        C425   1.401       .  S
C425        C426   1.199       .  T
C427        C428   1.202       .  T
C428        C429   1.407       .  S
C429        C430   1.202       .  T
C431        C432   1.211       .  T
C433        C434   1.211       .  T
C435        C436   1.206       .  T
C437        C438   1.206       .  T
C439        C440   1.210       .  T
C440        C441   1.418       .  S
C441        C442   1.209       .  T
C443        C444   1.208       .  T
C444        C445   1.416       .  S
C445        C446   1.208       .  T
C447        C448   1.206       .  T
C448        C449   1.414       .  S
C449        C450   1.207       .  T
C451        C452   1.203       .  T
C452        C453   1.409       .  S
C453        C454   1.204       .  T
C455        H457   1.086       .  S
C455        C456   1.349       .  D
C456        H458   1.086       .  S
C459        C460   1.210   1_455  T
C460        C461   1.419       .  S
C461        C462   1.210       .  T
C463        C464   1.209       .  T
C464        C465   1.417       .  S
C465        C466   1.209       .  T
C467        H469   1.088       .  S
C467        C468   1.344       .  D
C468        H470   1.086       .  S
C471        C472   1.209       .  T
C472        C473   1.417       .  S
C473        C474   1.209       .  T
C475        C476   1.208       .  T
C476        C477   1.415       .  S
C477        C478   1.207       .  T
C479        H481   1.088       .  S
C479        C480   1.343       .  D
C480        H482   1.086       .  S
C483        C484   1.204       .  T
C484        C485   1.409       .  S
C485        C486   1.203       .  T
C487        C488   1.202       .  T
C488        C489   1.406       .  S
C489        C490   1.202       .  T
C491        H493   1.086       .  S
C491        C492   1.344       .  D
C492        H494   1.088       .  S
C495        C496   1.209       .  T
C496        C497   1.417       .  S
C497        C498   1.209       .  T
C499        C500   1.206       .  T
C500        C501   1.413       .  S
C501        C502   1.206       .  T
C503        H505   1.088       .  S
C503        C504   1.340       .  D
C504        H506   1.086       .  S
C507        H509   1.085       .  S
C507        C508   1.349       .  D
C508        H510   1.085       .  S
