geometry optimzed in LAMMPS
_audit_creation_date              2020-11-30 
_audit_creation_method            'lammps2cif' 
_symmetry_space_group_name_H-M    'P1' 
_symmetry_Int_Tables_number       1 
_symmetry_cell_setting            triclinic 
loop_ 
_symmetry_equiv_pos_as_xyz 
  x,y,z 
_cell_length_a                    39.9492642 
_cell_length_b                    41.71683962837038 
_cell_length_c                    29.776188397914332 
_cell_angle_alpha                 89.79417136074365 
_cell_angle_beta                  90.09797850122114 
_cell_angle_gamma                 90.47916851428411 
loop_ 
_atom_site_label 
_atom_site_type_symbol 
_atom_site_fract_x 
_atom_site_fract_y 
_atom_site_fract_z 
_atom_site_charge 
C1          C  0.17600543  0.33592923  0.24043555     0.04100
C2          C  0.15558210  0.30866448  0.24693419    -0.12100
C3          C  0.12060201  0.31161901  0.24780903     0.01600
C4          C  0.10623300  0.34182142  0.24200139    -0.10600
C5          C  0.12624983  0.36911668  0.23551087     0.04000
C6          C  0.16117354  0.36614197  0.23481850    -0.10000
H7          H  0.16687685  0.28528893  0.25139419     0.09600
H8          H  0.07927225  0.34410563  0.24263844     0.07200
H9          H  0.17678320  0.38721647  0.22961798     0.07000
C10         C  0.17311577  0.71854461  0.22664560     0.04100
C11         C  0.15405494  0.74582838  0.23631499    -0.12100
C12         C  0.11909043  0.74334654  0.23922133     0.01600
C13         C  0.10327423  0.71372851  0.23207604    -0.10600
C14         C  0.12208590  0.68651770  0.22223829     0.04000
C15         C  0.15698081  0.68899318  0.21942259    -0.10000
H16         H  0.16635526  0.76864548  0.24225230     0.09600
H17         H  0.07626661  0.71176628  0.23479363     0.07200
H18         H  0.17161543  0.66778773  0.21272827     0.07000
C19         C  0.31765098  0.71079082  0.23192378     0.04100
C20         C  0.33195904  0.68041452  0.22600028    -0.12100
C21         C  0.36674055  0.67665333  0.22954721     0.01600
C22         C  0.38706788  0.70325843  0.23927634    -0.10600
C23         C  0.37303299  0.73356603  0.24499385     0.04000
C24         C  0.33834279  0.73732397  0.24114625    -0.10000
H25         H  0.31613509  0.65986036  0.21874786     0.09600
H26         H  0.41395882  0.70042833  0.24192519     0.07200
H27         H  0.32744891  0.76082122  0.24554255     0.07000
O28         O  0.03300574  0.49468502  0.25862088    -0.73500
O29         O  0.46313019  0.55695863  0.25451741    -0.73500
O30         O  0.46547058  0.49235122  0.25947291    -0.73600
O31         O  0.03061093  0.56001610  0.25360113    -0.73600
O32         O  0.02955348  0.55816347  0.17911597    -0.73600
O33         O  0.46622315  0.48829771  0.18532791    -0.73500
O34         O  0.46155453  0.55316264  0.18012347    -0.73500
O35         O  0.03366167  0.49348845  0.18407094    -0.73600
Ni36       Ni  0.49817325  0.52597474  0.25922405     1.25400
Ni37       Ni  0.49771944  0.52320155  0.17954121     1.25400
C38         C  0.04440369  0.48309627  0.22187711     0.88700
C39         C  0.45051904  0.56525535  0.21663864     0.88600
C40         C  0.45534990  0.47856190  0.22357767     0.88600
C41         C  0.04072455  0.57065787  0.21554142     0.88800
C42         C  0.32121230  0.33158311  0.23576494     0.04100
C43         C  0.33805951  0.36113661  0.23136204    -0.12100
C44         C  0.37312712  0.36253056  0.23234316     0.01600
C45         C  0.39137574  0.33421840  0.23728444    -0.10600
C46         C  0.37490379  0.30463725  0.24185822     0.04000
C47         C  0.33978112  0.30330627  0.24105792    -0.10000
H48         H  0.32386649  0.38308782  0.22819549     0.09600
H49         H  0.41842519  0.33530428  0.23876976     0.07200
H50         H  0.32695483  0.28048345  0.24529090     0.07000
C51         C  0.50159460  0.16336325  0.32562671     0.87400
C52         C  0.03050363  0.18771830  0.31767107    -0.52800
C53         C  0.02858193  0.20462136  0.27845599     0.10300
C54         C  0.49915657  0.19422131  0.24869676     0.21300
C55         C  0.46914532  0.18221195  0.31738833    -0.53500
C56         C  0.46791724  0.19979381  0.27828925     0.10400
C57         C  0.50455064  0.14160859  0.28439374    -0.53100
C58         C  0.50236808  0.15723143  0.24426880     0.11000
H59         H  0.05216039  0.19069995  0.33908032     0.15500
H60         H  0.49944201  0.20730058  0.21645487     0.01300
H61         H  0.44872520  0.18118087  0.34125722     0.15800
H62         H  0.50771080  0.11580670  0.28649251     0.15600
C63         C  0.49198268  0.88384239  0.32284287     0.87400
C64         C  0.46311480  0.85907740  0.31772866    -0.52800
C65         C  0.46347397  0.84169744  0.27872707     0.10300
C66         C  0.49309006  0.85093804  0.24809497     0.21300
C67         C  0.02334819  0.86260707  0.31657689    -0.53500
C68         C  0.02412592  0.84513225  0.27759966     0.10400
C69         C  0.49042873  0.90451123  0.28068203    -0.53100
C70         C  0.49116003  0.88777302  0.24175057     0.11000
H71         H  0.44501242  0.85409951  0.34381453     0.15500
H72         H  0.49337890  0.83716318  0.21657278     0.01300
H73         H  0.04287856  0.86092135  0.34174913     0.15800
H74         H  0.48953798  0.93053905  0.28149214     0.15600
C75         C  0.50000087  0.08930668  0.49620025     0.81100
N76         N  0.50033346  0.05673222  0.49539238    -0.77200
C77         C  0.50061066  0.03940576  0.03431390     0.83600
N78         N  0.50089923  0.05499279  0.07437518    -0.77100
C79         C  0.50070254  0.08752366  0.07557800     0.83700
N80         N  0.49996289  0.10442117  0.03655917    -0.78800
C81         C  0.49535781  0.95608356  0.49228802     0.81100
N82         N  0.49383791  0.93910426  0.03146242    -0.77200
C83         C  0.49517929  0.95479539  0.07134555     0.83600
N84         N  0.49782668  0.98722600  0.07203580    -0.77100
C85         C  0.49918541  0.00417524  0.03310354     0.83700
N86         N  0.49795276  0.98859305  0.49319794    -0.78800
C87         C  0.49412164  0.93910716  0.44865121    -0.04400
C88         C  0.46337673  0.92800908  0.43137392    -0.01500
C89         C  0.46202124  0.91261501  0.38917723     0.03500
C90         C  0.49207818  0.90489227  0.36586324    -0.04400
C91         C  0.02215782  0.92002605  0.38092935    -0.01500
C92         C  0.02328946  0.93599735  0.42268087     0.03500
C93         C  0.43282717  0.93357658  0.45641548     0.38100
C94         C  0.05151670  0.92183131  0.35237022     0.38100
C95         C  0.05459612  0.94957213  0.43897386     0.36500
C96         C  0.42951463  0.90894710  0.36796551     0.36500
N97         N  0.07951784  0.96038894  0.45206849    -0.38300
N98         N  0.40345952  0.90636181  0.35122302    -0.38300
N99         N  0.07504540  0.92350270  0.32983011    -0.37700
N100        N  0.40850237  0.93801847  0.47642160    -0.37700
C101        C  0.49206984  0.90477447  0.19784686    -0.04400
C102        C  0.46203647  0.91402707  0.17661697    -0.01500
C103        C  0.46300989  0.92933735  0.13429843     0.03500
C104        C  0.49405590  0.93688492  0.11421148    -0.04400
C105        C  0.02401884  0.92999666  0.13712661    -0.01500
C106        C  0.02302034  0.91464292  0.17936216     0.03500
C107        C  0.43029779  0.90926398  0.19940633     0.38100
C108        C  0.05593076  0.93868503  0.11712340     0.38100
C109        C  0.05376153  0.91001908  0.20451770     0.36500
C110        C  0.43213112  0.93787530  0.11172806     0.36500
N111        N  0.07831171  0.90630063  0.22448291    -0.38300
N112        N  0.40754301  0.94469775  0.09359358    -0.38300
N113        N  0.08134650  0.94556915  0.10101338    -0.37700
N114        N  0.40505344  0.90553020  0.21778533    -0.37700
C115        C  0.50045626  0.14511880  0.37155706    -0.04400
C116        C  0.01790141  0.15569549  0.41076009    -0.01500
C117        C  0.01936726  0.13636687  0.44975838     0.03500
C118        C  0.50004045  0.10822591  0.45335234    -0.04400
C119        C  0.47954183  0.09915778  0.41672068    -0.01500
C120        C  0.47932412  0.11756076  0.37663099     0.03500
C121        C  0.03094644  0.18800020  0.41518218     0.38100
C122        C  0.45758737  0.07135517  0.42056330     0.38100
C123        C  0.45552968  0.10880992  0.34173010     0.36500
C124        C  0.04134780  0.14588104  0.48649225     0.36500
N125        N  0.43644580  0.10176783  0.31410921    -0.38300
N126        N  0.05863603  0.15369107  0.01567268    -0.38300
N127        N  0.44011301  0.04917558  0.42348629    -0.37700
N128        N  0.04196861  0.21335736  0.42122209    -0.37700
C129        C  0.50112034  0.10459124  0.11925202    -0.04400
C130        C  0.03142925  0.11082171  0.14127720    -0.01500
C131        C  0.03188103  0.12723295  0.18272343     0.03500
C132        C  0.50200183  0.13906381  0.20116090    -0.04400
C133        C  0.47126096  0.13108245  0.18031242    -0.01500
C134        C  0.47086446  0.11444378  0.13905566     0.03500
C135        C  0.06251234  0.10028637  0.12129895     0.38100
C136        C  0.43997658  0.13826729  0.20263229     0.38100
C137        C  0.43928405  0.10694866  0.11724836     0.36500
C138        C  0.06303345  0.13084563  0.20737109     0.36500
N139        N  0.41413868  0.10086895  0.09976830    -0.38300
N140        N  0.08778874  0.13364200  0.22727401    -0.38300
N141        N  0.41498361  0.14389780  0.22043107    -0.37700
N142        N  0.08730496  0.09196820  0.10521738    -0.37700
C143        C  0.44130748  0.22496361  0.26872920    -0.04400
C144        C  0.42772001  0.24380063  0.30436239    -0.01500
C145        C  0.40459812  0.26843696  0.29535465     0.03500
C146        C  0.39511238  0.27559260  0.25107091    -0.04400
C147        C  0.40769319  0.25722471  0.21557015    -0.01500
C148        C  0.43042385  0.23202636  0.22401507     0.03500
C149        C  0.43813867  0.23970680  0.35071356     0.38100
C150        C  0.39763192  0.26490058  0.16988667     0.38100
C151        C  0.44232778  0.21434951  0.18553859     0.36500
C152        C  0.39105432  0.28730197  0.33192080     0.36500
N153        N  0.45154216  0.20164843  0.15339909    -0.38300
N154        N  0.38026185  0.30224271  0.36109666    -0.38300
N155        N  0.38961443  0.27108288  0.13352644    -0.37700
N156        N  0.44554052  0.23668585  0.38809221    -0.37700
C157        C  0.39121734  0.39379381  0.23086204    -0.04400
C158        C  0.39390505  0.41113768  0.19037997    -0.01500
C159        C  0.41368097  0.43935282  0.18817649     0.03500
C160        C  0.43152495  0.45040519  0.22666651    -0.04400
C161        C  0.42713245  0.43345167  0.26797906    -0.01500
C162        C  0.40713589  0.40544646  0.26979566     0.03500
C163        C  0.37695051  0.39939179  0.15048611     0.38100
C164        C  0.44342506  0.44390649  0.30910127     0.38100
C165        C  0.40291539  0.38842455  0.31209506     0.36500
C166        C  0.41501686  0.45685529  0.14600286     0.36500
N167        N  0.39960626  0.37499777  0.34588784    -0.38300
N168        N  0.41595802  0.47064543  0.11221993    -0.38300
N169        N  0.45613542  0.45208337  0.34214725    -0.37700
N170        N  0.36348730  0.39007828  0.11860576    -0.37700
C171        C  0.39516931  0.76154319  0.25400124    -0.04400
C172        C  0.41029292  0.76523781  0.29635719    -0.01500
C173        C  0.43275105  0.79091918  0.30431584     0.03500
C174        C  0.44003120  0.81375462  0.26986408    -0.04400
C175        C  0.42516089  0.80912103  0.22686276    -0.01500
C176        C  0.40266151  0.78339342  0.21934344     0.03500
C177        C  0.40263710  0.74236672  0.33187511     0.38100
C178        C  0.43312824  0.82975104  0.18913155     0.38100
C179        C  0.38767951  0.77879200  0.17529583     0.36500
C180        C  0.44918276  0.79246956  0.34772266     0.36500
N181        N  0.37567997  0.77501833  0.14028816    -0.38300
N182        N  0.46155964  0.79339548  0.38285932    -0.38300
N183        N  0.43927582  0.84457770  0.15724495    -0.37700
N184        N  0.39644839  0.72405513  0.36001202    -0.37700
C185        C  0.42376654  0.59020371  0.21541119    -0.04400
C186        C  0.42190137  0.61248954  0.17937179    -0.01500
C187        C  0.40230388  0.64027947  0.18350106     0.03500
C188        C  0.38278235  0.64512699  0.22222878    -0.04400
C189        C  0.38111855  0.62104523  0.25547812    -0.01500
C190        C  0.40153566  0.59367828  0.25217933     0.03500
C191        C  0.44009440  0.60738238  0.13796202     0.38100
C192        C  0.35948403  0.62513536  0.29408631     0.38100
C193        C  0.39905140  0.56884812  0.28630369     0.36500
C194        C  0.40307232  0.66459890  0.14848409     0.36500
N195        N  0.39696161  0.54897003  0.31339843    -0.38300
N196        N  0.40384565  0.68419924  0.12089250    -0.38300
N197        N  0.34214701  0.62841622  0.32479899    -0.37700
N198        N  0.45381415  0.60321670  0.10431905    -0.37700
C199        C  0.28075843  0.71476975  0.22981465    -0.04400
C200        C  0.26352737  0.71144498  0.18860374    -0.01500
C201        C  0.22838151  0.71435556  0.18713693     0.03500
C202        C  0.21025752  0.71993593  0.22698864    -0.04400
C203        C  0.22757012  0.72418797  0.26794083    -0.01500
C204        C  0.26272669  0.72181967  0.26929234     0.03500
C205        C  0.28198594  0.70516689  0.14770109     0.35200
C206        C  0.20908315  0.72981693  0.30903868     0.38100
C207        C  0.28029404  0.72559795  0.31166251     0.36500
C208        C  0.21079327  0.71201450  0.14458135     0.36500
N209        N  0.29439801  0.72868591  0.34537038    -0.38300
N210        N  0.19666017  0.71035641  0.11069544    -0.38300
N211        N  0.19423485  0.73431874  0.34172104    -0.37700
N212        N  0.29670725  0.70006673  0.11509229    -0.37700
C213        C  0.05025047  0.81998380  0.26793618    -0.04400
C214        C  0.06391612  0.81607682  0.22408847    -0.01500
C215        C  0.08835105  0.79254737  0.21583515     0.03500
C216        C  0.09826671  0.77150298  0.25015474    -0.04400
C217        C  0.08502243  0.77486403  0.29355964    -0.01500
C218        C  0.06109259  0.79870182  0.30253810     0.03500
C219        C  0.05230834  0.83452169  0.18596057     0.38100
C220        C  0.09587197  0.75328255  0.32901078     0.38100
C221        C  0.04647155  0.79944442  0.34707016     0.36500
C222        C  0.10291326  0.78932918  0.17139623     0.36500
N223        N  0.03551282  0.79983539  0.38301080    -0.38300
N224        N  0.11473460  0.78681298  0.13614145    -0.38300
N225        N  0.10461836  0.73609241  0.35719221    -0.37700
N226        N  0.04334683  0.84743772  0.15370653    -0.37700
C227        C  0.06501338  0.59836697  0.21423756    -0.04400
C228        C  0.06546233  0.62024708  0.17747547    -0.01500
C229        C  0.08482870  0.64868085  0.17967461     0.03500
C230        C  0.10489855  0.65505785  0.21755173    -0.04400
C231        C  0.10687681  0.63230445  0.25241504    -0.01500
C232        C  0.08684935  0.60432488  0.25116633     0.03500
C233        C  0.04572830  0.61432142  0.13742056     0.38100
C234        C  0.12893671  0.63819946  0.29040195     0.38100
C235        C  0.08899759  0.58204011  0.28851883     0.36500
C236        C  0.08399035  0.67172213  0.14302291     0.36500
N237        N  0.09081039  0.56485544  0.31898051    -0.38300
N238        N  0.08339503  0.69023275  0.11399494    -0.38300
N239        N  0.14669435  0.64285538  0.32047359    -0.37700
N240        N  0.03056612  0.60975542  0.10489350    -0.37700
C241        C  0.21309549  0.33302001  0.23889397    -0.04400
C242        C  0.23033844  0.33846212  0.19816988    -0.01500
C243        C  0.26562285  0.33753033  0.19702594     0.03500
C244        C  0.28395267  0.33070223  0.23646980    -0.04400
C245        C  0.26667715  0.32449885  0.27700663    -0.01500
C246        C  0.23137397  0.32586549  0.27827861     0.03500
C247        C  0.21166092  0.34477547  0.15729435     0.38100
C248        C  0.28529145  0.31775843  0.31778154     0.38100
C249        C  0.21390536  0.32114814  0.32049270     0.36500
C250        C  0.28308777  0.34344821  0.15511476     0.36500
N251        N  0.19994523  0.31751212  0.35417694    -0.38300
N252        N  0.29693073  0.34820062  0.12161478    -0.38300
N253        N  0.30011326  0.31234755  0.35032210    -0.37700
N254        N  0.19664483  0.34977384  0.12478065    -0.37700
C255        C  0.05142946  0.23258878  0.26877929    -0.04400
C256        C  0.07019720  0.23476845  0.22854355    -0.01500
C257        C  0.09358901  0.26004883  0.22222358     0.03500
C258        C  0.09823251  0.28348805  0.25574585    -0.04400
C259        C  0.07849480  0.28222235  0.29488448    -0.01500
C260        C  0.05459753  0.25755996  0.30071515     0.03500
C261        C  0.06459717  0.21232315  0.19232280     0.38100
C262        C  0.08242892  0.30676646  0.32905910     0.38100
C263        C  0.03119324  0.26001588  0.33758825     0.36500
C264        C  0.11190774  0.26276941  0.18032457     0.36500
N265        N  0.51227088  0.26369142  0.36639942    -0.38300
N266        N  0.12640474  0.26504050  0.14683365    -0.38300
N267        N  0.08554468  0.32642525  0.35611039    -0.37700
N268        N  0.06025092  0.19566292  0.16185946    -0.37700
C269        C  0.10970002  0.40058163  0.22887895    -0.04400
C270        C  0.11175931  0.42445183  0.26217148    -0.01500
C271        C  0.09157417  0.45205912  0.25919711     0.03500
C272        C  0.06894785  0.45603229  0.22277691    -0.04400
C273        C  0.06846990  0.43257511  0.18816814    -0.01500
C274        C  0.08884880  0.40523451  0.19125330     0.03500
C275        C  0.13365776  0.41992273  0.30059431     0.38100
C276        C  0.04573649  0.43513587  0.15023844     0.38100
C277        C  0.08781992  0.38126103  0.15597202     0.36500
C278        C  0.09418584  0.47598156  0.29421210     0.36500
N279        N  0.08698758  0.36203064  0.12806603    -0.38300
N280        N  0.09658189  0.49457502  0.32278403    -0.38300
N281        N  0.02770554  0.43699391  0.11988621    -0.37700
N282        N  0.15117586  0.41628564  0.33115656    -0.37700
C283        C  0.17601084  0.33583373  0.74023928     0.04100
C284        C  0.15557311  0.30858259  0.74677727    -0.12100
C285        C  0.12058902  0.31153589  0.74750355     0.01600
C286        C  0.10622964  0.34172699  0.74150100    -0.10600
C287        C  0.12626010  0.36901184  0.73497597     0.04000
C288        C  0.16118555  0.36603179  0.73442756    -0.10000
H289        H  0.16686016  0.28521778  0.75139244     0.09600
H290        H  0.07926834  0.34401416  0.74205310     0.07200
H291        H  0.17680640  0.38709869  0.72922362     0.07000
C292        C  0.17309775  0.71854738  0.72653431     0.04100
C293        C  0.15405381  0.74581681  0.73634338    -0.12100
C294        C  0.11909235  0.74333872  0.73931241     0.01600
C295        C  0.10325978  0.71373922  0.73209402    -0.10600
C296        C  0.12204898  0.68654251  0.72209722     0.04000
C297        C  0.15694310  0.68901673  0.71921796    -0.10000
H298        H  0.16636460  0.76862372  0.74231665     0.09600
H299        H  0.07625334  0.71178281  0.73485474     0.07200
H300        H  0.17156358  0.66782289  0.71239969     0.07000
C301        C  0.31765314  0.71085169  0.73145639     0.04100
C302        C  0.33194455  0.68046440  0.72557915    -0.12100
C303        C  0.36672305  0.67668810  0.72912546     0.01600
C304        C  0.38706753  0.70329229  0.73880667    -0.10600
C305        C  0.37305099  0.73361352  0.74447759     0.04000
C306        C  0.33836152  0.73738509  0.74062426    -0.10000
H307        H  0.31610790  0.65991005  0.71837769     0.09600
H308        H  0.41395547  0.70044828  0.74147123     0.07200
H309        H  0.32747852  0.76088888  0.74500494     0.07000
O310        O  0.03311225  0.49459045  0.75824218    -0.73500
O311        O  0.46312443  0.55708413  0.75438855    -0.73500
O312        O  0.46546495  0.49249275  0.75964668    -0.73600
O313        O  0.03072628  0.55993240  0.75339960    -0.73600
O314        O  0.02953844  0.55817382  0.67890584    -0.73600
O315        O  0.46621991  0.48823935  0.68550583    -0.73500
O316        O  0.46148768  0.55310302  0.68001273    -0.73500
O317        O  0.03364550  0.49346021  0.68368793    -0.73600
Ni318      Ni  0.49817036  0.52610453  0.75919448     1.25400
Ni319      Ni  0.49767615  0.52317053  0.67951953     1.25400
C320        C  0.04444599  0.48302869  0.72144780     0.88700
C321        C  0.45047849  0.56528010  0.71648517     0.88600
C322        C  0.45538354  0.47858905  0.72382152     0.88600
C323        C  0.04074301  0.57064198  0.71533208     0.88800
C324        C  0.32125500  0.33161275  0.73627471     0.04100
C325        C  0.33813215  0.36116315  0.73197949    -0.12100
C326        C  0.37320706  0.36253414  0.73298425     0.01600
C327        C  0.39142172  0.33419040  0.73785518    -0.10600
C328        C  0.37492128  0.30461707  0.74235697     0.04000
C329        C  0.33979892  0.30331593  0.74151856    -0.10000
H330        H  0.32395524  0.38312593  0.72883726     0.09600
H331        H  0.41847233  0.33524209  0.73932258     0.07200
H332        H  0.32695236  0.28049561  0.74565920     0.07000
C333        C  0.50168759  0.16329126  0.82571220     0.87400
C334        C  0.03044630  0.18769355  0.81758101    -0.52800
C335        C  0.02854031  0.20457410  0.77834693     0.10300
C336        C  0.49914547  0.19420002  0.74882406     0.21300
C337        C  0.46920591  0.18210791  0.81754320    -0.53500
C338        C  0.46792542  0.19971337  0.77846877     0.10400
C339        C  0.50464488  0.14157055  0.78444459    -0.53100
C340        C  0.50241274  0.15721998  0.74434597     0.11000
H341        H  0.05210473  0.19067266  0.83899023     0.15500
H342        H  0.49936494  0.20729941  0.71659570     0.01300
H343        H  0.44880957  0.18105492  0.84144876     0.15800
H344        H  0.50783782  0.11577099  0.78650204     0.15600
C345        C  0.49198832  0.88381035  0.82271245     0.87400
C346        C  0.46308275  0.85909712  0.81747459    -0.52800
C347        C  0.46347160  0.84174250  0.77844704     0.10300
C348        C  0.49314089  0.85097548  0.74789941     0.21300
C349        C  0.02341168  0.86265364  0.81669744    -0.53500
C350        C  0.02418151  0.84516350  0.77773080     0.10400
C351        C  0.49052123  0.90452225  0.78058643    -0.53100
C352        C  0.49127074  0.88782012  0.74162388     0.11000
H353        H  0.44493771  0.85412041  0.84350485     0.15500
H354        H  0.49345591  0.83723315  0.71634901     0.01300
H355        H  0.04293138  0.86095662  0.84188127     0.15800
H356        H  0.48964924  0.93055001  0.78144386     0.15600
C357        C  0.50015089  0.08913437  0.99622629     0.81100
N358        N  0.50048315  0.05655986  0.99542913    -0.77200
C359        C  0.50049295  0.03957422  0.53427301     0.83600
N360        N  0.50081077  0.05515402  0.57433463    -0.77100
C361        C  0.50061364  0.08768191  0.57554692     0.83700
N362        N  0.49984605  0.10458803  0.53653724    -0.78800
C363        C  0.49543134  0.95591086  0.99231422     0.81100
N364        N  0.49383314  0.93927390  0.53143531    -0.77200
C365        C  0.49519954  0.95496400  0.57131487     0.83600
N366        N  0.49780185  0.98739714  0.57200263    -0.77100
C367        C  0.49909423  0.00434736  0.53306656     0.83700
N368        N  0.49806745  0.98841947  0.99323192    -0.78800
C369        C  0.49418355  0.93893794  0.94866404    -0.04400
C370        C  0.46342919  0.92786172  0.93138398    -0.01500
C371        C  0.46204855  0.91251644  0.88914904     0.03500
C372        C  0.49209033  0.90481741  0.86578348    -0.04400
C373        C  0.02223540  0.92010208  0.88103554    -0.01500
C374        C  0.02333727  0.93609715  0.92277149     0.03500
C375        C  0.43289337  0.93340165  0.95646796     0.38100
C376        C  0.05163136  0.92184931  0.85253989     0.38100
C377        C  0.05463239  0.94967519  0.93909892     0.36500
C378        C  0.42953204  0.90890234  0.86795029     0.36500
N379        N  0.07954292  0.96049943  0.95222005    -0.38300
N380        N  0.40346669  0.90636654  0.85122246    -0.38300
N381        N  0.07519012  0.92347156  0.83005002    -0.37700
N382        N  0.40858138  0.93781963  0.97651289    -0.37700
C383        C  0.49216652  0.90486043  0.69774974    -0.04400
C384        C  0.46212073  0.91410395  0.67654350    -0.01500
C385        C  0.46307327  0.92946500  0.63426223     0.03500
C386        C  0.49410840  0.93704746  0.61417368    -0.04400
C387        C  0.02412874  0.92994837  0.63712488    -0.01500
C388        C  0.02313578  0.91464379  0.67939592     0.03500
C389        C  0.43038709  0.90927285  0.69931839     0.38100
C390        C  0.05603718  0.93863676  0.61711116     0.38100
C391        C  0.05387912  0.91004753  0.70455822     0.36500
C392        C  0.43218382  0.93802179  0.61173143     0.36500
N393        N  0.07842985  0.90634957  0.72453029    -0.38300
N394        N  0.40759042  0.94486576  0.59362637    -0.38300
N395        N  0.08145013  0.94552391  0.60099549    -0.37700
N396        N  0.40514537  0.90548299  0.71768260    -0.37700
C397        C  0.50059858  0.14500233  0.87161662    -0.04400
C398        C  0.01778477  0.15576111  0.91071624    -0.01500
C399        C  0.01922054  0.13646858  0.94975208     0.03500
C400        C  0.50021295  0.10805192  0.95337326    -0.04400
C401        C  0.47973220  0.09898668  0.91672291    -0.01500
C402        C  0.47948596  0.11742593  0.87666479     0.03500
C403        C  0.03085256  0.18806232  0.91508084     0.38100
C404        C  0.45783397  0.07113910  0.92050572     0.38100
C405        C  0.45567811  0.10868985  0.84177300     0.36500
C406        C  0.04117133  0.14602057  0.98649830     0.36500
N407        N  0.43657977  0.10165676  0.81416572    -0.38300
N408        N  0.05883821  0.15351753  0.51565645    -0.38300
N409        N  0.44041184  0.04891850  0.92337638    -0.37700
N410        N  0.04189238  0.21341936  0.92106673    -0.37700
C411        C  0.50107338  0.10472880  0.61922692    -0.04400
C412        C  0.03144301  0.11062734  0.64138017    -0.01500
C413        C  0.03184683  0.12705041  0.68281956     0.03500
C414        C  0.50202020  0.13908806  0.70121547    -0.04400
C415        C  0.47126038  0.13106139  0.68045493    -0.01500
C416        C  0.47082838  0.11447471  0.63916140     0.03500
C417        C  0.06254239  0.10001769  0.62152691     0.38100
C418        C  0.44000004  0.13815310  0.70289564     0.38100
C419        C  0.43922568  0.10692969  0.61744536     0.36500
C420        C  0.06295050  0.13057141  0.70760277     0.36500
N421        N  0.41406232  0.10081162  0.60003780    -0.38300
N422        N  0.08766490  0.13329080  0.72761666    -0.38300
N423        N  0.41502832  0.14371213  0.72079317    -0.37700
N424        N  0.08734913  0.09164218  0.60554441    -0.37700
C425        C  0.44129922  0.22488309  0.76899838    -0.04400
C426        C  0.42779050  0.24372438  0.80467789    -0.01500
C427        C  0.40467249  0.26837894  0.79575076     0.03500
C428        C  0.39510345  0.27554054  0.75150025    -0.04400
C429        C  0.40757865  0.25714346  0.71595937    -0.01500
C430        C  0.43032548  0.23194270  0.72432395     0.03500
C431        C  0.43828829  0.23960893  0.85099254     0.38100
C432        C  0.39738150  0.26478475  0.67031962     0.38100
C433        C  0.44216151  0.21426458  0.68581019     0.36500
C434        C  0.39119378  0.28723659  0.83236724     0.36500
N435        N  0.45132055  0.20156430  0.65364138    -0.38300
N436        N  0.38044069  0.30216664  0.86158059    -0.38300
N437        N  0.38924464  0.27093659  0.63399704    -0.37700
N438        N  0.44575565  0.23656350  0.88834362    -0.37700
C439        C  0.39134498  0.39378773  0.73147668    -0.04400
C440        C  0.39357951  0.41137940  0.69114070    -0.01500
C441        C  0.41331119  0.43961931  0.68887333     0.03500
C442        C  0.43164670  0.45039592  0.72707786    -0.04400
C443        C  0.42783832  0.43314709  0.76823896    -0.01500
C444        C  0.40778395  0.40518290  0.77018874     0.03500
C445        C  0.37626056  0.39985136  0.65140956     0.38100
C446        C  0.44487484  0.44321965  0.80901027     0.38100
C447        C  0.40404787  0.38794946  0.81239889     0.36500
C448        C  0.41409358  0.45746000  0.64695405     0.36500
N449        N  0.40113652  0.37436604  0.84613365    -0.38300
N450        N  0.41459618  0.47153108  0.61338352    -0.38300
N451        N  0.45819434  0.45108876  0.84177320    -0.37700
N452        N  0.36254334  0.39073066  0.61961539    -0.37700
C453        C  0.39519806  0.76158074  0.75352274    -0.04400
C454        C  0.41024237  0.76528917  0.79592650    -0.01500
C455        C  0.43269014  0.79096940  0.80394524     0.03500
C456        C  0.44003099  0.81380328  0.76951236    -0.04400
C457        C  0.42523752  0.80915871  0.72646289    -0.01500
C458        C  0.40276417  0.78341675  0.71887512     0.03500
C459        C  0.40252024  0.74242983  0.83143375     0.38100
C460        C  0.43324645  0.82980195  0.68876061     0.38100
C461        C  0.38788815  0.77878229  0.67477066     0.36500
C462        C  0.44904490  0.79252132  0.84740400     0.36500
N463        N  0.37597630  0.77497546  0.63971642    -0.38300
N464        N  0.46135742  0.79345456  0.88258081    -0.38300
N465        N  0.43942557  0.84464810  0.65690205    -0.37700
N466        N  0.39628229  0.72412933  0.85956539    -0.37700
C467        C  0.42371417  0.59021046  0.71516985    -0.04400
C468        C  0.42186612  0.61245988  0.67908746    -0.01500
C469        C  0.40227412  0.64025766  0.68315373     0.03500
C470        C  0.38274192  0.64514406  0.72186145    -0.04400
C471        C  0.38103391  0.62107561  0.75512864    -0.01500
C472        C  0.40144944  0.59370343  0.75189218     0.03500
C473        C  0.44005780  0.60729695  0.63769195     0.38100
C474        C  0.35934347  0.62517521  0.79367707     0.38100
C475        C  0.39891914  0.56887540  0.78601295     0.36500
C476        C  0.40304438  0.66453739  0.64808330     0.36500
N477        N  0.39678825  0.54899354  0.81309670    -0.38300
N478        N  0.40381237  0.68410570  0.62044697    -0.38300
N479        N  0.34195650  0.62845818  0.82433833    -0.37700
N480        N  0.45376965  0.60308261  0.60405579    -0.37700
C481        C  0.28075666  0.71482653  0.72942728    -0.04400
C482        C  0.26346406  0.71143862  0.68827276    -0.01500
C483        C  0.22831356  0.71432557  0.68689517     0.03500
C484        C  0.21024337  0.71993578  0.72678481    -0.04400
C485        C  0.22761670  0.72423025  0.76768442    -0.01500
C486        C  0.26277823  0.72189620  0.76894143     0.03500
C487        C  0.28186206  0.70510996  0.64733674     0.35200
C488        C  0.20919037  0.72985172  0.80883352     0.38100
C489        C  0.28040773  0.72572128  0.81125771     0.36500
C490        C  0.21066465  0.71192219  0.64439088     0.36500
N491        N  0.29456407  0.72884581  0.84491968    -0.38300
N492        N  0.19648098  0.71020947  0.61054813    -0.38300
N493        N  0.19439291  0.73434344  0.84156039    -0.37700
N494        N  0.29653159  0.69996610  0.61469974    -0.37700
C495        C  0.05029429  0.82000343  0.76806810    -0.04400
C496        C  0.06394853  0.81608697  0.72421532    -0.01500
C497        C  0.08836621  0.79254480  0.71595334     0.03500
C498        C  0.09828206  0.77149924  0.75027012    -0.04400
C499        C  0.08504660  0.77486496  0.79367972    -0.01500
C500        C  0.06113156  0.79871690  0.80266726     0.03500
C501        C  0.05234567  0.83453243  0.68608580     0.38100
C502        C  0.09588860  0.75327504  0.82912386     0.38100
C503        C  0.04651780  0.79946980  0.84720310     0.36500
C504        C  0.10290481  0.78930905  0.67150199     0.36500
N505        N  0.03556224  0.79986730  0.88314537    -0.38300
N506        N  0.11470554  0.78677588  0.63623736    -0.38300
N507        N  0.10462892  0.73607886  0.85730155    -0.37700
N508        N  0.04338926  0.84744116  0.65382368    -0.37700
C509        C  0.06495406  0.59840344  0.71401976    -0.04400
C510        C  0.06507312  0.62048307  0.67749623    -0.01500
C511        C  0.08447374  0.64889651  0.67967914     0.03500
C512        C  0.10484234  0.65509392  0.71733414    -0.04400
C513        C  0.10705944  0.63218775  0.75197628    -0.01500
C514        C  0.08702228  0.60421549  0.75073797     0.03500
C515        C  0.04487223  0.61482979  0.63778265     0.38100
C516        C  0.12935997  0.63792305  0.78975856     0.38100
C517        C  0.08934850  0.58181950  0.78793506     0.36500
C518        C  0.08335647  0.67210269  0.64324723     0.36500
N519        N  0.09129824  0.56456517  0.81830146    -0.38300
N520        N  0.08253874  0.69074144  0.61439199    -0.38300
N521        N  0.14730795  0.64245175  0.81966468    -0.37700
N522        N  0.02930335  0.61049968  0.60553899    -0.37700
C523        C  0.21311124  0.33293743  0.73888169    -0.04400
C524        C  0.23046455  0.33844566  0.69825997    -0.01500
C525        C  0.26575457  0.33759665  0.69730335     0.03500
C526        C  0.28398826  0.33073354  0.73681649    -0.04400
C527        C  0.26660387  0.32442413  0.77724062    -0.01500
C528        C  0.23129198  0.32575324  0.77834076     0.03500
C529        C  0.21189502  0.34470832  0.65727902     0.38100
C530        C  0.28511257  0.31759131  0.81807239     0.38100
C531        C  0.21371147  0.32096063  0.82045497     0.36500
C532        C  0.28331510  0.34361736  0.65549557     0.36500
N533        N  0.19965692  0.31726462  0.85405640    -0.38300
N534        N  0.29720504  0.34845097  0.62205409    -0.38300
N535        N  0.29985508  0.31209786  0.85065120    -0.37700
N536        N  0.19697103  0.34965350  0.62467289    -0.37700
C537        C  0.05140991  0.23252082  0.76863936    -0.04400
C538        C  0.07025753  0.23460699  0.72846476    -0.01500
C539        C  0.09365991  0.25987419  0.72210687     0.03500
C540        C  0.09820971  0.28341694  0.75550830    -0.04400
C541        C  0.07840314  0.28223561  0.79459002    -0.01500
C542        C  0.05452646  0.25755876  0.80048234     0.03500
C543        C  0.06474272  0.21206338  0.69234309     0.38100
C544        C  0.08225910  0.30686929  0.82865281     0.38100
C545        C  0.03111668  0.26004339  0.83734406     0.36500
C546        C  0.11210599  0.26245892  0.68029406     0.36500
N547        N  0.51249756  0.26356790  0.86674053    -0.38300
N548        N  0.12671362  0.26461639  0.64687657    -0.38300
N549        N  0.08531079  0.32659693  0.85561800    -0.37700
N550        N  0.06047866  0.19532252  0.66194744    -0.37700
C551        C  0.10973353  0.40049114  0.72831812    -0.04400
C552        C  0.11184119  0.42437323  0.76158825    -0.01500
C553        C  0.09165176  0.45197736  0.75865302     0.03500
C554        C  0.06899377  0.45596129  0.72226889    -0.04400
C555        C  0.06847955  0.43250391  0.68766183    -0.01500
C556        C  0.08885472  0.40515283  0.69071926     0.03500
C557        C  0.13380036  0.41986527  0.79995513     0.38100
C558        C  0.04569913  0.43506757  0.64978537     0.38100
C559        C  0.08781143  0.38118829  0.65542897     0.36500
C560        C  0.09426414  0.47586458  0.79371329     0.36500
N561        N  0.08697794  0.36196647  0.62751129    -0.38300
N562        N  0.09665235  0.49441240  0.82234321    -0.38300
N563        N  0.02762580  0.43692033  0.61947783    -0.37700
N564        N  0.15137278  0.41625397  0.83046719    -0.37700
C565        C  0.67613878  0.33585780  0.24052103     0.04100
C566        C  0.65574472  0.30859426  0.24717269    -0.12100
C567        C  0.62075566  0.31150223  0.24784802     0.01600
C568        C  0.60635785  0.34166465  0.24172227    -0.10600
C569        C  0.62635213  0.36896189  0.23511070     0.04000
C570        C  0.66128041  0.36602227  0.23456568    -0.10000
H571        H  0.66706812  0.28525718  0.25189798     0.09600
H572        H  0.57939332  0.34392069  0.24224944     0.07200
H573        H  0.67687751  0.38709476  0.22928232     0.07000
C574        C  0.67301841  0.71847795  0.22681673     0.04100
C575        C  0.65397953  0.74575471  0.23660006    -0.12100
C576        C  0.61902279  0.74326896  0.23965823     0.01600
C577        C  0.60319522  0.71364957  0.23258808    -0.10600
C578        C  0.62198195  0.68644316  0.22262952     0.04000
C579        C  0.65687001  0.68892729  0.21963880    -0.10000
H580        H  0.66629043  0.76857677  0.24246143     0.09600
H581        H  0.57619228  0.71169047  0.23540362     0.07200
H582        H  0.67149047  0.66773356  0.21282024     0.07000
C583        C  0.81758213  0.71089874  0.23117527     0.04100
C584        C  0.83186053  0.68052597  0.22509802    -0.12100
C585        C  0.86663653  0.67671842  0.22864649     0.01600
C586        C  0.88698520  0.70328731  0.23852660    -0.10600
C587        C  0.87298760  0.73360036  0.24433814     0.04000
C588        C  0.83830173  0.73739811  0.24049168    -0.10000
H589        H  0.81601296  0.66000410  0.21776201     0.09600
H590        H  0.91387103  0.70042693  0.24120571     0.07200
H591        H  0.82742927  0.76089308  0.24500325     0.07000
O592        O  0.53304688  0.49435938  0.25847639    -0.73500
O593        O  0.96306057  0.55728274  0.25409273    -0.73500
O594        O  0.96542594  0.49270342  0.25959879    -0.73600
O595        O  0.53065613  0.55971512  0.25394322    -0.73600
O596        O  0.52954186  0.55808852  0.17944140    -0.73600
O597        O  0.96628332  0.48832046  0.18546418    -0.73500
O598        O  0.96155598  0.55318413  0.17970969    -0.73500
O599        O  0.53362499  0.49336402  0.18391430    -0.73600
Ni600      Ni  0.99811878  0.52631734  0.25910091     1.25400
Ni601      Ni  0.99774011  0.52325534  0.17942993     1.25400
C602        C  0.54440905  0.48287521  0.22165403     0.88700
C603        C  0.95049657  0.56541982  0.21611240     0.88600
C604        C  0.95541929  0.47872485  0.22379567     0.88600
C605        C  0.54068780  0.57051131  0.21592634     0.88800
C606        C  0.82134835  0.33176824  0.23658663     0.04100
C607        C  0.83824454  0.36130064  0.23224116    -0.12100
C608        C  0.87332324  0.36263232  0.23310983     0.01600
C609        C  0.89151030  0.33426002  0.23787291    -0.10600
C610        C  0.87497661  0.30470717  0.24243582     0.04000
C611        C  0.83985551  0.30345092  0.24175597    -0.10000
H612        H  0.82408203  0.38327608  0.22915494     0.09600
H613        H  0.91856541  0.33527457  0.23922923     0.07200
H614        H  0.82698320  0.28064844  0.24594909     0.07000
C615        C  0.00166484  0.16328460  0.32554937     0.87400
C616        C  0.53049208  0.18772699  0.31775687    -0.52800
C617        C  0.52865791  0.20457435  0.27849811     0.10300
C618        C  0.99905902  0.19424673  0.24870664     0.21300
C619        C  0.96916748  0.18209008  0.31743834    -0.53500
C620        C  0.96785817  0.19971502  0.27838606     0.10400
C621        C  0.00461858  0.14159804  0.28424516    -0.53100
C622        C  0.00234586  0.15727624  0.24417367     0.11000
H623        H  0.55211403  0.19071335  0.33923470     0.15500
H624        H  0.99922717  0.20736914  0.21649824     0.01300
H625        H  0.94878671  0.18102547  0.34136840     0.15800
H626        H  0.00782490  0.11579866  0.28625796     0.15600
C627        C  0.99197772  0.88371071  0.32283044     0.87400
C628        C  0.96309942  0.85896444  0.31760702    -0.52800
C629        C  0.96346673  0.84165236  0.27854005     0.10300
C630        C  0.99309715  0.85094742  0.24795768     0.21300
C631        C  0.52336163  0.86273832  0.31665296    -0.53500
C632        C  0.52413006  0.84518282  0.27774394     0.10400
C633        C  0.99044015  0.90445874  0.28074496    -0.53100
C634        C  0.99117498  0.88779443  0.24175248     0.11000
H635        H  0.94498290  0.85395080  0.34366152     0.15500
H636        H  0.99340432  0.83723442  0.21638205     0.01300
H637        H  0.54290154  0.86111352  0.34181777     0.15800
H638        H  0.98954733  0.93048497  0.28165041     0.15600
C639        C  0.99993702  0.08910999  0.49605908     0.81100
N640        N  0.00028444  0.05653448  0.49530546    -0.77200
C641        C  0.00023639  0.03952756  0.03425977     0.83600
N642        N  0.00047785  0.05514802  0.07429064    -0.77100
C643        C  0.00025870  0.08767722  0.07543620     0.83700
N644        N  0.99956516  0.10454379  0.03639207    -0.78800
C645        C  0.99540032  0.95586431  0.49238163     0.81100
N646        N  0.99384250  0.93920821  0.03159330    -0.77200
C647        C  0.99508600  0.95493899  0.07144746     0.83600
N648        N  0.99759489  0.98737939  0.07208345    -0.77100
C649        C  0.99891357  0.00429608  0.03311912     0.83700
N650        N  0.99793551  0.98838020  0.49322916    -0.78800
C651        C  0.99416786  0.93884714  0.44877058    -0.04400
C652        C  0.96341541  0.92777333  0.43148408    -0.01500
C653        C  0.96204436  0.91239893  0.38927102     0.03500
C654        C  0.99209106  0.90468894  0.36592457    -0.04400
C655        C  0.52213144  0.92026532  0.38083833    -0.01500
C656        C  0.52324308  0.93628373  0.42255411     0.03500
C657        C  0.93287265  0.93334857  0.45653724     0.38100
C658        C  0.55149939  0.92203952  0.35229416     0.38100
C659        C  0.55452700  0.94993297  0.43880577     0.36500
C660        C  0.92953043  0.90875127  0.36807521     0.36500
N661        N  0.57942550  0.96081856  0.45186932    -0.38300
N662        N  0.90346808  0.90618677  0.35134718    -0.38300
N663        N  0.57503886  0.92368408  0.32977108    -0.37700
N664        N  0.90855631  0.93779819  0.47655825    -0.37700
C665        C  0.99205822  0.90487540  0.19791073    -0.04400
C666        C  0.96201118  0.91417015  0.17675365    -0.01500
C667        C  0.96295692  0.92953757  0.13447571     0.03500
C668        C  0.99398996  0.93705536  0.11433273    -0.04400
C669        C  0.52406818  0.92987754  0.13707932    -0.01500
C670        C  0.52304357  0.91453262  0.17932103     0.03500
C671        C  0.93028741  0.90936690  0.19956490     0.38100
C672        C  0.55599088  0.93862617  0.11715601     0.38100
C673        C  0.55377112  0.90990987  0.20450772     0.36500
C674        C  0.93206511  0.93814128  0.11198756     0.36500
N675        N  0.57831049  0.90618754  0.22449548    -0.38300
N676        N  0.90746843  0.94502034  0.09391725    -0.38300
N677        N  0.58141511  0.94556717  0.10111637    -0.37700
N678        N  0.90505526  0.90559786  0.21796067    -0.37700
C679        C  0.00058675  0.14495621  0.37142737    -0.04400
C680        C  0.51775193  0.15591957  0.41086577    -0.01500
C681        C  0.51928654  0.13660771  0.44987032     0.03500
C682        C  0.00009133  0.10800190  0.45318680    -0.04400
C683        C  0.97966550  0.09893427  0.41648768    -0.01500
C684        C  0.97946612  0.11737774  0.37643347     0.03500
C685        C  0.53066819  0.18827567  0.41525236     0.38100
C686        C  0.95777213  0.07107886  0.42021644     0.38100
C687        C  0.95569199  0.10863890  0.34150218     0.36500
C688        C  0.54130564  0.14615811  0.48654142     0.36500
N689        N  0.93661980  0.10159369  0.31386882    -0.38300
N690        N  0.55900616  0.15360966  0.01571287    -0.38300
N691        N  0.94035670  0.04885068  0.42304358    -0.37700
N692        N  0.54157303  0.21368624  0.42123013    -0.37700
C693        C  0.00078251  0.10477170  0.11907670    -0.04400
C694        C  0.53168227  0.11045785  0.14175701    -0.01500
C695        C  0.53201690  0.12690164  0.18318371     0.03500
C696        C  0.00187919  0.13917379  0.20102513    -0.04400
C697        C  0.97107793  0.13105115  0.18044301    -0.01500
C698        C  0.97056827  0.11444388  0.13916619     0.03500
C699        C  0.56280230  0.09971466  0.12211015     0.38100
C700        C  0.93986275  0.13810584  0.20302284     0.38100
C701        C  0.93892215  0.10683259  0.11760970     0.36500
C702        C  0.56305062  0.13031969  0.20815209     0.36500
N703        N  0.91371896  0.10067425  0.10033316    -0.38300
N704        N  0.58770175  0.13296023  0.22832562    -0.38300
N705        N  0.91492876  0.14364571  0.22102699    -0.37700
N706        N  0.58763284  0.09123300  0.10630740    -0.37700
C707        C  0.94123443  0.22488423  0.26896407    -0.04400
C708        C  0.92777205  0.24372856  0.30466649    -0.01500
C709        C  0.90467122  0.26840026  0.29577493     0.03500
C710        C  0.89512104  0.27560576  0.25153199    -0.04400
C711        C  0.90755173  0.25720530  0.21596668    -0.01500
C712        C  0.93023989  0.23195477  0.22430395     0.03500
C713        C  0.93831190  0.23960329  0.35096193     0.38100
C714        C  0.89736408  0.26488524  0.17033571     0.38100
C715        C  0.94198969  0.21422968  0.18578291     0.36500
C716        C  0.89118760  0.28722655  0.33241937     0.36500
N717        N  0.95108176  0.20148994  0.15361050    -0.38300
N718        N  0.88042106  0.30212827  0.36165215    -0.38300
N719        N  0.88923976  0.27106534  0.13401736    -0.37700
N720        N  0.94581836  0.23655215  0.38829772    -0.37700
C721        C  0.89149174  0.39387151  0.23158159    -0.04400
C722        C  0.89348205  0.41159486  0.19133080    -0.01500
C723        C  0.91318940  0.43984928  0.18903663     0.03500
C724        C  0.93174352  0.45050160  0.22710929    -0.04400
C725        C  0.92821606  0.43310900  0.26818912    -0.01500
C726        C  0.90817205  0.40514157  0.27018580     0.03500
C727        C  0.87592788  0.40019489  0.15171225     0.38100
C728        C  0.94555779  0.44302915  0.30880440     0.38100
C729        C  0.90468821  0.38778527  0.31233575     0.36500
C730        C  0.91371189  0.45785400  0.14724970     0.36500
N731        N  0.90197973  0.37410285  0.34602216    -0.38300
N732        N  0.91401015  0.47206339  0.11379000    -0.38300
N733        N  0.95912239  0.45077876  0.34144325    -0.37700
N734        N  0.86201380  0.39117062  0.12001662    -0.37700
C735        C  0.89515767  0.76154086  0.25345423    -0.04400
C736        C  0.91021909  0.76518648  0.29585879    -0.01500
C737        C  0.93268757  0.79084459  0.30392788     0.03500
C738        C  0.94001917  0.81372611  0.26955340    -0.04400
C739        C  0.92520606  0.80914532  0.22650310    -0.01500
C740        C  0.90273387  0.78341270  0.21885505     0.03500
C741        C  0.90249356  0.74228632  0.33131227     0.38100
C742        C  0.93318153  0.82985594  0.18886074     0.38100
C743        C  0.88787192  0.77882351  0.17473257     0.36500
C744        C  0.94907257  0.79232525  0.34737076     0.36500
N745        N  0.87597611  0.77505094  0.13966145    -0.38300
N746        N  0.96141227  0.79319607  0.38253367    -0.38300
N747        N  0.93933005  0.84475980  0.15704460    -0.37700
N748        N  0.89625119  0.72395505  0.35940302    -0.37700
C749        C  0.92375700  0.59034564  0.21460956    -0.04400
C750        C  0.92237016  0.61287410  0.17884323    -0.01500
C751        C  0.90269076  0.64061438  0.18286455     0.03500
C752        C  0.88266310  0.64519183  0.22120070    -0.04400
C753        C  0.88052254  0.62083908  0.25403084    -0.01500
C754        C  0.90103596  0.59352731  0.25086900     0.03500
C755        C  0.94120624  0.60809191  0.13787798     0.38100
C756        C  0.85827164  0.62456650  0.29207692     0.38100
C757        C  0.89818095  0.56845201  0.28458775     0.36500
C758        C  0.90386770  0.66514289  0.14815057     0.36500
N759        N  0.89579939  0.54837396  0.31135008    -0.38300
N760        N  0.90495774  0.68490564  0.12080370    -0.38300
N761        N  0.84041918  0.62754156  0.32231897    -0.37700
N762        N  0.95545128  0.60419572  0.10456701    -0.37700
C763        C  0.78068262  0.71487413  0.22928134    -0.04400
C764        C  0.76331253  0.71158884  0.18816866    -0.01500
C765        C  0.72815264  0.71441621  0.18694255     0.03500
C766        C  0.71015952  0.71989269  0.22693149    -0.04400
C767        C  0.72760733  0.72408990  0.26779028    -0.01500
C768        C  0.76277335  0.72179741  0.26890518     0.03500
C769        C  0.78163932  0.70542751  0.14712354     0.35200
C770        C  0.70925148  0.72955750  0.30903832     0.38100
C771        C  0.78048049  0.72550713  0.31118365     0.36500
C772        C  0.71041146  0.71206586  0.14450190     0.36500
N773        N  0.79470157  0.72853873  0.34481322    -0.38300
N774        N  0.69615301  0.71038891  0.11071209    -0.38300
N775        N  0.69451015  0.73391973  0.34184659    -0.37700
N776        N  0.79625138  0.70042215  0.11439617    -0.37700
C777        C  0.55024759  0.82000846  0.26815966    -0.04400
C778        C  0.56384261  0.81597313  0.22429526    -0.01500
C779        C  0.58822129  0.79238264  0.21608773     0.03500
C780        C  0.59820914  0.77145006  0.25050441    -0.04400
C781        C  0.58504563  0.77494461  0.29393098    -0.01500
C782        C  0.56113280  0.79881293  0.30284491     0.03500
C783        C  0.55223556  0.83436691  0.18611717     0.38100
C784        C  0.59594815  0.75346050  0.32946818     0.38100
C785        C  0.54657503  0.79967472  0.34740922     0.36500
C786        C  0.60263370  0.78896834  0.17158988     0.36500
N787        N  0.53566544  0.80016206  0.38337392    -0.38300
N788        N  0.61432646  0.78628214  0.13628400    -0.38300
N789        N  0.60473500  0.73634837  0.35772010    -0.37700
N790        N  0.54327400  0.84724664  0.15383455    -0.37700
C791        C  0.56483663  0.59832509  0.21468873    -0.04400
C792        C  0.56490982  0.62042260  0.17818148    -0.01500
C793        C  0.58434901  0.64881031  0.18030798     0.03500
C794        C  0.60476679  0.65499501  0.21791548    -0.04400
C795        C  0.60699411  0.63209671  0.25256843    -0.01500
C796        C  0.58691808  0.60414361  0.25139036     0.03500
C797        C  0.54458535  0.61483656  0.13855983     0.38100
C798        C  0.62937233  0.63780942  0.29027378     0.38100
C799        C  0.58920683  0.58178716  0.28863717     0.36500
C800        C  0.58323737  0.67199513  0.14384698     0.36500
N801        N  0.59112809  0.56457183  0.31905106    -0.38300
N802        N  0.58242821  0.69060861  0.11495930    -0.38300
N803        N  0.64739334  0.64232150  0.32010608    -0.37700
N804        N  0.52890041  0.61056246  0.10640259    -0.37700
C805        C  0.71323354  0.33301191  0.23921181    -0.04400
C806        C  0.73056424  0.33814119  0.19848324    -0.01500
C807        C  0.76585413  0.33735369  0.19754241     0.03500
C808        C  0.78409593  0.33091010  0.23718131    -0.04400
C809        C  0.76673892  0.32499633  0.27773348    -0.01500
C810        C  0.73142742  0.32628096  0.27881348     0.03500
C811        C  0.71197233  0.34395639  0.15739241     0.38100
C812        C  0.78527566  0.31860476  0.31868283     0.38100
C813        C  0.71385421  0.32189973  0.32101583     0.36500
C814        C  0.78341474  0.34303059  0.15564349     0.36500
N815        N  0.69980143  0.31853824  0.35468354    -0.38300
N816        N  0.79732309  0.34759262  0.12214357    -0.38300
N817        N  0.80003890  0.31347078  0.35136058    -0.37700
N818        N  0.69703205  0.34853798  0.12469486    -0.37700
C819        C  0.55155206  0.23250126  0.26884005    -0.04400
C820        C  0.57058517  0.23448370  0.22882120    -0.01500
C821        C  0.59402754  0.25972536  0.22254565     0.03500
C822        C  0.59840214  0.28336548  0.25585531    -0.04400
C823        C  0.57842445  0.28226965  0.29478710    -0.01500
C824        C  0.55452727  0.25760371  0.30059944     0.03500
C825        C  0.56521274  0.21186065  0.19276047     0.38100
C826        C  0.58213454  0.30696870  0.32878417     0.38100
C827        C  0.53096353  0.26015097  0.33727541     0.36500
C828        C  0.61271024  0.26217151  0.18090790     0.36500
N829        N  0.01261842  0.26349406  0.36686394    -0.38300
N830        N  0.62752022  0.26421381  0.14763835    -0.38300
N831        N  0.58506781  0.32674452  0.35570217    -0.37700
N832        N  0.56106749  0.19505218  0.16241030    -0.37700
C833        C  0.60978598  0.40041784  0.22843722    -0.04400
C834        C  0.61192946  0.42432936  0.26166360    -0.01500
C835        C  0.59170331  0.45190678  0.25875073     0.03500
C836        C  0.56898008  0.45583644  0.22243145    -0.04400
C837        C  0.56841981  0.43235355  0.18786766    -0.01500
C838        C  0.58882547  0.40502264  0.19090327     0.03500
C839        C  0.63395739  0.41987552  0.29997346     0.38100
C840        C  0.54555346  0.43487200  0.15007902     0.38100
C841        C  0.58772349  0.38101867  0.15566946     0.36500
C842        C  0.59434052  0.47582407  0.29376852     0.36500
N843        N  0.58684113  0.36176305  0.12779964    -0.38300
N844        N  0.59674543  0.49439944  0.32236089    -0.38300
N845        N  0.52740855  0.43669284  0.11984479    -0.37700
N846        N  0.65158472  0.41630591  0.33043838    -0.37700
C847        C  0.67608704  0.33587129  0.74053937     0.04100
C848        C  0.65567611  0.30861026  0.74712774    -0.12100
C849        C  0.62068997  0.31153872  0.74783978     0.01600
C850        C  0.60630646  0.34171299  0.74178226    -0.10600
C851        C  0.62631753  0.36900474  0.73522667     0.04000
C852        C  0.66124191  0.36605169  0.73467999    -0.10000
H853        H  0.66698400  0.28525887  0.75177975     0.09600
H854        H  0.57934341  0.34398251  0.74231919     0.07200
H855        H  0.67684669  0.38712647  0.72944631     0.07000
C856        C  0.67307921  0.71846128  0.72680264     0.04100
C857        C  0.65402198  0.74573536  0.73654813    -0.12100
C858        C  0.61905822  0.74325270  0.73949585     0.01600
C859        C  0.60323957  0.71363819  0.73234302    -0.10600
C860        C  0.62203727  0.68643218  0.72241028     0.04000
C861        C  0.65693464  0.68891627  0.71953751    -0.10000
H862        H  0.66632379  0.76855392  0.74247073     0.09600
H863        H  0.57623305  0.71168071  0.73508657     0.07200
H864        H  0.67156422  0.66772505  0.71274170     0.07000
C865        C  0.81766249  0.71090681  0.73150908     0.04100
C866        C  0.83196753  0.68053889  0.72548836    -0.12100
C867        C  0.86675048  0.67676804  0.72898640     0.01600
C868        C  0.88708702  0.70336057  0.73876334    -0.10600
C869        C  0.87306065  0.73366374  0.74457082     0.04000
C870        C  0.83836629  0.73742966  0.74076482    -0.10000
H871        H  0.81613650  0.65999271  0.71822275     0.09600
H872        H  0.91397710  0.70052257  0.74139606     0.07200
H873        H  0.82747716  0.76092045  0.74524384     0.07000
O874        O  0.53303726  0.49447169  0.75852320    -0.73500
O875        O  0.96319927  0.55721031  0.75409647    -0.73500
O876        O  0.96554297  0.49262365  0.75941760    -0.73600
O877        O  0.53065901  0.55981945  0.75373775    -0.73600
O878        O  0.52948102  0.55808734  0.67923899    -0.73600
O879        O  0.96626146  0.48833906  0.68527980    -0.73500
O880        O  0.96154370  0.55320981  0.67971946    -0.73500
O881        O  0.53360407  0.49337339  0.68396900    -0.73600
Ni882      Ni  0.99824479  0.52622854  0.75890793     1.25400
Ni883      Ni  0.99772318  0.52326426  0.67923494     1.25400
C884        C  0.54439249  0.48293092  0.72172890     0.88700
C885        C  0.95055135  0.56540149  0.71619176     0.88600
C886        C  0.95544987  0.47870114  0.72361549     0.88600
C887        C  0.54067330  0.57054818  0.71567689     0.88800
C888        C  0.82130564  0.33177687  0.73646283     0.04100
C889        C  0.83818967  0.36131837  0.73213323    -0.12100
C890        C  0.87326544  0.36266765  0.73304769     0.01600
C891        C  0.89146948  0.33431288  0.73786637    -0.10600
C892        C  0.87495270  0.30474991  0.74239549     0.04000
C893        C  0.83983274  0.30347035  0.74164876    -0.10000
H894        H  0.82401985  0.38328822  0.72902051     0.09600
H895        H  0.91852231  0.33534707  0.73926515     0.07200
H896        H  0.82697509  0.28065718  0.74581192     0.07000
C897        C  0.00158671  0.16328513  0.82548509     0.87400
C898        C  0.53054650  0.18769882  0.81783002    -0.52800
C899        C  0.52865877  0.20457121  0.77859257     0.10300
C900        C  0.99900778  0.19420479  0.74860647     0.21300
C901        C  0.96910614  0.18210626  0.81735176    -0.53500
C902        C  0.96781138  0.19971790  0.77828996     0.10400
C903        C  0.00452347  0.14157074  0.78420865    -0.53100
C904        C  0.00226673  0.15722385  0.74411553     0.11000
H905        H  0.55219079  0.19068682  0.83926318     0.15500
H906        H  0.99919465  0.20730777  0.71638005     0.01300
H907        H  0.94872358  0.18106351  0.84128005     0.15800
H908        H  0.00771854  0.11577091  0.78625649     0.15600
C909        C  0.99206374  0.88379772  0.82290947     0.87400
C910        C  0.96315793  0.85908261  0.81769109    -0.52800
C911        C  0.96351848  0.84174819  0.77864612     0.10300
C912        C  0.99316647  0.85099615  0.74807114     0.21300
C913        C  0.52333979  0.86266311  0.81655210    -0.53500
C914        C  0.52413596  0.84515084  0.77760636     0.10400
C915        C  0.99056834  0.90452761  0.78080298    -0.53100
C916        C  0.99129307  0.88784109  0.74182862     0.11000
H917        H  0.94502794  0.85410279  0.84374065     0.15500
H918        H  0.99346092  0.83726638  0.71651012     0.01300
H919        H  0.54284830  0.86099020  0.84175637     0.15800
H920        H  0.98969984  0.93055524  0.78168134     0.15600
C921        C  0.99979360  0.08922302  0.99608662     0.81100
N922        N  0.00014119  0.05664726  0.99534407    -0.77200
C923        C  0.00036013  0.03940941  0.53421584     0.83600
N924        N  0.00058004  0.05502436  0.57425313    -0.77100
C925        C  0.00035696  0.08755371  0.57541073     0.83700
N926        N  0.99968310  0.10442503  0.53636943    -0.78800
C927        C  0.99539224  0.95598473  0.99242028     0.81100
N928        N  0.99387566  0.93909334  0.53156320    -0.77200
C929        C  0.99518117  0.95482997  0.57141161     0.83600
N930        N  0.99772148  0.98726669  0.57203419    -0.77100
C931        C  0.99901639  0.00417837  0.53306774     0.83700
N932        N  0.99788947  0.98850110  0.99327740    -0.78800
C933        C  0.99419271  0.93897327  0.94880876    -0.04400
C934        C  0.96344725  0.92792560  0.93147406    -0.01500
C935        C  0.96210256  0.91255112  0.88926325     0.03500
C936        C  0.99216551  0.90479441  0.86598425    -0.04400
C937        C  0.52215679  0.92015373  0.88078438    -0.01500
C938        C  0.52329547  0.93611585  0.92254446     0.03500
C939        C  0.93288690  0.93352464  0.95647923     0.38100
C940        C  0.55151504  0.92194388  0.85222305     0.38100
C941        C  0.55460417  0.94969101  0.93882770     0.36500
C942        C  0.92960653  0.90894683  0.86800358     0.36500
N943        N  0.57952794  0.96050792  0.95191504    -0.38300
N944        N  0.90355776  0.90641639  0.85122817    -0.38300
N945        N  0.57504227  0.92360084  0.82967863    -0.37700
N946        N  0.90855950  0.93799302  0.97646750    -0.37700
C947        C  0.99217602  0.90489028  0.69796513    -0.04400
C948        C  0.96212654  0.91415554  0.67679203    -0.01500
C949        C  0.96306618  0.92947377  0.63448065     0.03500
C950        C  0.99409619  0.93696623  0.61431201    -0.04400
C951        C  0.52413269  0.93003735  0.63701057    -0.01500
C952        C  0.52312915  0.91466121  0.67923179     0.03500
C953        C  0.93040648  0.90937602  0.69962174     0.38100
C954        C  0.55604408  0.93880671  0.61707145     0.38100
C955        C  0.55386476  0.91004581  0.70440263     0.36500
C956        C  0.93217100  0.93807250  0.61199728     0.36500
N957        N  0.57841195  0.90633150  0.72437609    -0.38300
N958        N  0.90757135  0.94495242  0.59393518    -0.38300
N959        N  0.58145910  0.94576122  0.60101634    -0.37700
N960        N  0.90517840  0.90562400  0.71803375    -0.37700
C961        C  0.00048608  0.14499168  0.87138768    -0.04400
C962        C  0.51792261  0.15576766  0.91092465    -0.01500
C963        C  0.51945677  0.13643587  0.94991293     0.03500
C964        C  0.99994115  0.10810600  0.95320574    -0.04400
C965        C  0.97951726  0.09902249  0.91651186    -0.01500
C966        C  0.97934227  0.11743277  0.87642780     0.03500
C967        C  0.53088843  0.18810331  0.91533274     0.38100
C968        C  0.95759607  0.07118964  0.92027949     0.38100
C969        C  0.95556909  0.10868405  0.84149938     0.36500
C970        C  0.54147911  0.14596420  0.98659266     0.36500
N971        N  0.93649778  0.10163488  0.81386664    -0.38300
N972        N  0.55883051  0.15382146  0.51565487    -0.38300
N973        N  0.94015621  0.04898100  0.92313872    -0.37700
N974        N  0.54184114  0.21349193  0.92133817    -0.37700
C975        C  0.00083059  0.10464486  0.61906032    -0.04400
C976        C  0.53166487  0.11064170  0.64163401    -0.01500
C977        C  0.53203485  0.12702264  0.68310744     0.03500
C978        C  0.00184011  0.13908840  0.70098553    -0.04400
C979        C  0.97106305  0.13101407  0.68030182    -0.01500
C980        C  0.97059851  0.11438498  0.63903849     0.03500
C981        C  0.56277523  0.10000683  0.62183923     0.38100
C982        C  0.93982186  0.13810986  0.70278876     0.38100
C983        C  0.93897809  0.10680612  0.61739280     0.36500
C984        C  0.56310655  0.13047216  0.70798241     0.36500
N985        N  0.91379608  0.10066865  0.60004663    -0.38300
N986        N  0.58779321  0.13313281  0.72807273    -0.38300
N987        N  0.91486708  0.14367532  0.72072493    -0.37700
N988        N  0.58759423  0.09161206  0.60591095    -0.37700
C989        C  0.94121330  0.22491788  0.76888576    -0.04400
C990        C  0.92778371  0.24377953  0.80459735    -0.01500
C991        C  0.90470561  0.26847383  0.79571950     0.03500
C992        C  0.89511036  0.27565613  0.75148738    -0.04400
C993        C  0.90749885  0.25723294  0.71591839    -0.01500
C994        C  0.93019771  0.23198755  0.72423667     0.03500
C995        C  0.93831904  0.23963775  0.85089224     0.38100
C996        C  0.89725504  0.26488525  0.67030150     0.38100
C997        C  0.94193713  0.21426517  0.68570869     0.36500
C998        C  0.89128800  0.28734347  0.83236564     0.36500
N999        N  0.95102108  0.20152612  0.65353164    -0.38300
N1000       N  0.88057918  0.30228346  0.86159869    -0.38300
N1001       N  0.88907974  0.27104498  0.63399711    -0.37700
N1002       N  0.94581547  0.23657179  0.88822955    -0.37700
C1003       C  0.89141710  0.39390891  0.73147172    -0.04400
C1004       C  0.89362334  0.41146905  0.69110716    -0.01500
C1005       C  0.91337165  0.43969423  0.68876401     0.03500
C1006       C  0.93172891  0.45050132  0.72693213    -0.04400
C1007       C  0.92795512  0.43327906  0.76812296    -0.01500
C1008       C  0.90789731  0.40532049  0.77014089     0.03500
C1009       C  0.87624965  0.39992512  0.65142743     0.38100
C1010       C  0.94503793  0.44336731  0.80885289     0.38100
C1011       C  0.90419984  0.38810927  0.81237564     0.36500
C1012       C  0.91416027  0.45747894  0.64679880     0.36500
N1013       N  0.90131855  0.37454152  0.84612748    -0.38300
N1014       N  0.91467227  0.47150069  0.61318823    -0.38300
N1015       N  0.95839596  0.45124849  0.84158225    -0.37700
N1016       N  0.86248356  0.39079112  0.61967846    -0.37700
C1017       C  0.89520761  0.76162500  0.75365896    -0.04400
C1018       C  0.91026517  0.76530067  0.79606099    -0.01500
C1019       C  0.93272358  0.79097035  0.80410288     0.03500
C1020       C  0.94006042  0.81382537  0.76969607    -0.04400
C1021       C  0.92524910  0.80921618  0.72665051    -0.01500
C1022       C  0.90277047  0.78348320  0.71903834     0.03500
C1023       C  0.90254912  0.74241762  0.83153969     0.38100
C1024       C  0.93324249  0.82988849  0.68897369     0.38100
C1025       C  0.88788580  0.77888033  0.67493266     0.36500
C1026       C  0.94909565  0.79248917  0.84755284     0.36500
N1027       N  0.87596820  0.77509836  0.63987678    -0.38300
N1028       N  0.96142574  0.79339709  0.88272015    -0.38300
N1029       N  0.93940696  0.84475687  0.65713056    -0.37700
N1030       N  0.89631664  0.72410040  0.85965219    -0.37700
C1031       C  0.92379658  0.59033694  0.71487759    -0.04400
C1032       C  0.92204227  0.61267350  0.67889469    -0.01500
C1033       C  0.90240988  0.64044464  0.68298349     0.03500
C1034       C  0.88278061  0.64523731  0.72162957    -0.04400
C1035       C  0.88100301  0.62109115  0.75478221    -0.01500
C1036       C  0.90144182  0.59373704  0.75151578     0.03500
C1037       C  0.94040056  0.60764080  0.63759969     0.38100
C1038       C  0.85921389  0.62508935  0.79325202     0.38100
C1039       C  0.89885648  0.56883620  0.78552489     0.36500
C1040       C  0.90322761  0.66478709  0.64799997     0.36500
N1041       N  0.89668455  0.54889692  0.81252002    -0.38300
N1042       N  0.90402858  0.68440068  0.62042794    -0.38300
N1043       N  0.84174532  0.62829169  0.82384731    -0.37700
N1044       N  0.95425409  0.60353702  0.60404101    -0.37700
C1045       C  0.78075779  0.71486383  0.72953664    -0.04400
C1046       C  0.76343402  0.71149133  0.68840202    -0.01500
C1047       C  0.72827561  0.71432433  0.68708364     0.03500
C1048       C  0.71022789  0.71987695  0.72700803    -0.04400
C1049       C  0.72763081  0.72417004  0.76788550    -0.01500
C1050       C  0.76279912  0.72188108  0.76908764     0.03500
C1051       C  0.78180939  0.70524349  0.64742229     0.35200
C1052       C  0.70922970  0.72975164  0.80906514     0.38100
C1053       C  0.78045759  0.72570094  0.81138326     0.36500
C1054       C  0.71059484  0.71192823  0.64460311     0.36500
N1055       N  0.79463937  0.72882303  0.84502659    -0.38300
N1056       N  0.69638595  0.71022183  0.61077884    -0.38300
N1057       N  0.69445431  0.73421206  0.84181875    -0.37700
N1058       N  0.79646262  0.70016778  0.61475033    -0.37700
C1059       C  0.55024909  0.81997119  0.76801687    -0.04400
C1060       C  0.56392136  0.81600314  0.72418402    -0.01500
C1061       C  0.58831322  0.79242194  0.71597988     0.03500
C1062       C  0.59822881  0.77142431  0.75035854    -0.04400
C1063       C  0.58498364  0.77485115  0.79375260    -0.01500
C1064       C  0.56106499  0.79871514  0.80266709     0.03500
C1065       C  0.55238139  0.83446072  0.68603010     0.38100
C1066       C  0.59581558  0.75330716  0.82925763     0.38100
C1067       C  0.54643314  0.79951606  0.84718959     0.36500
C1068       C  0.60282139  0.78909271  0.67152573     0.36500
N1069       N  0.53546566  0.79995133  0.88312401    -0.38300
N1070       N  0.61459297  0.78647787  0.63625597    -0.38300
N1071       N  0.60454827  0.73614690  0.85748273    -0.37700
N1072       N  0.54347514  0.84739284  0.65376103    -0.37700
C1073       C  0.56487004  0.59832157  0.71436652    -0.04400
C1074       C  0.56488174  0.62046749  0.67792497    -0.01500
C1075       C  0.58432592  0.64885518  0.68007628     0.03500
C1076       C  0.60482064  0.65498172  0.71763485    -0.04400
C1077       C  0.60711853  0.63201807  0.75219688    -0.01500
C1078       C  0.58704544  0.60406455  0.75098578     0.03500
C1079       C  0.54449442  0.61492333  0.63835242     0.38100
C1080       C  0.62954115  0.63767152  0.78987198     0.38100
C1081       C  0.58943813  0.58161856  0.78811260     0.36500
C1082       C  0.58312720  0.67210582  0.64370495     0.36500
N1083       N  0.59144718  0.56432748  0.81842983    -0.38300
N1084       N  0.58224577  0.69077768  0.61489569    -0.38300
N1085       N  0.64758960  0.64213283  0.81968923    -0.37700
N1086       N  0.52876418  0.61068354  0.60622646    -0.37700
C1087       C  0.71318189  0.33300815  0.73916768    -0.04400
C1088       C  0.73050370  0.33842127  0.69849953    -0.01500
C1089       C  0.76579227  0.33763107  0.69752299     0.03500
C1090       C  0.78404863  0.33090242  0.73705926    -0.04400
C1091       C  0.76669824  0.32469167  0.77753620    -0.01500
C1092       C  0.73138732  0.32597729  0.77865813     0.03500
C1093       C  0.71190363  0.34452392  0.65749588     0.38100
C1094       C  0.78524011  0.31800004  0.81838736     0.38100
C1095       C  0.71383076  0.32129405  0.82081324     0.36500
C1096       C  0.78332960  0.34358366  0.65567891     0.36500
N1097       N  0.69979431  0.31768735  0.85444630    -0.38300
N1098       N  0.79720472  0.34836718  0.62221275    -0.38300
N1099       N  0.80000891  0.31262098  0.85098252    -0.37700
N1100       N  0.69695627  0.34933724  0.62487005    -0.37700
C1101       C  0.55152951  0.23251419  0.76890900    -0.04400
C1102       C  0.57044840  0.23456739  0.72879474    -0.01500
C1103       C  0.59385176  0.25983524  0.72246833     0.03500
C1104       C  0.59833044  0.28340902  0.75584280    -0.04400
C1105       C  0.57846295  0.28225056  0.79487078    -0.01500
C1106       C  0.55458477  0.25757269  0.80072692     0.03500
C1107       C  0.56500826  0.21198723  0.69269909     0.38100
C1108       C  0.58225871  0.30690544  0.82891466     0.38100
C1109       C  0.53111622  0.26006819  0.83752074     0.36500
C1110       C  0.61237215  0.26238851  0.68071079     0.36500
N1111       N  0.01254834  0.26354269  0.86662152    -0.38300
N1112       N  0.62704140  0.26452215  0.64733923    -0.38300
N1113       N  0.58526104  0.32664821  0.85586745    -0.37700
N1114       N  0.56081247  0.19521768  0.66231858    -0.37700
C1115       C  0.60977329  0.40046830  0.72857028    -0.04400
C1116       C  0.61182230  0.42432175  0.76188176    -0.01500
C1117       C  0.59158634  0.45189257  0.75897421     0.03500
C1118       C  0.56896276  0.45588450  0.72255142    -0.04400
C1119       C  0.56851226  0.43245742  0.68790151    -0.01500
C1120       C  0.58892146  0.40512999  0.69094793     0.03500
C1121       C  0.63377428  0.41981611  0.80025804     0.38100
C1122       C  0.54575786  0.43501932  0.64999705     0.38100
C1123       C  0.58794443  0.38118856  0.65562394     0.36500
C1124       C  0.59409738  0.47571988  0.79412584     0.36500
N1125       N  0.58716861  0.36198451  0.62767997    -0.38300
N1126       N  0.59639729  0.49420853  0.82284237    -0.38300
N1127       N  0.52770495  0.43686711  0.61966699    -0.37700
N1128       N  0.65134497  0.41620714  0.83077243    -0.37700
loop_ 
_geom_bond_atom_site_label_1 
_geom_bond_atom_site_label_2 
_geom_bond_distance 
_geom_bond_site_symmetry_2 
_ccdc_geom_bond_type 
C1            C2   1.407       .  A
C1            C6   1.407       .  A
C1          C241   1.488       .  S
C2            C3   1.404       .  A
C2            H7   1.086       .  S
C3            C4   1.399       .  A
C3          C258   1.488       .  S
C4            C5   1.399       .  A
C4            H8   1.082       .  S
C5            C6   1.402       .  A
C5          C269   1.487       .  S
C6            H9   1.084       .  S
C10          C11   1.406       .  A
C10          C15   1.403       .  A
C10         C202   1.484       .  S
C11          C12   1.403       .  A
C11          H16   1.083       .  S
C12          C13   1.400       .  A
C12         C216   1.482       .  S
C13          C14   1.399       .  A
C13          H17   1.084       .  S
C14          C15   1.400       .  A
C14         C230   1.483       .  S
C15          H18   1.084       .  S
C19          C20   1.406       .  A
C19          C24   1.404       .  A
C19         C199   1.486       .  S
C20          C21   1.403       .  A
C20          H25   1.083       .  S
C21          C22   1.401       .  A
C21         C188   1.485       .  S
C22          C23   1.398       .  A
C22          H26   1.084       .  S
C23          C24   1.400       .  A
C23         C171   1.483       .  S
C24          H27   1.084       .  S
O28          C38   1.283       .  A
O28        Ni600   1.927   1_455  S
O29          C39   1.282       .  A
O29         Ni36   1.918       .  S
O30          C40   1.279       .  A
O30         Ni36   1.909       .  S
O31          C41   1.280       .  A
O31        Ni600   1.912   1_455  S
O32          C41   1.283       .  A
O32        Ni601   1.925   1_455  S
O33          C40   1.283       .  A
O33         Ni37   1.924       .  S
O34          C39   1.281       .  A
O34         Ni37   1.918       .  S
O35          C38   1.280       .  A
O35        Ni601   1.910   1_455  S
Ni36        O592   1.927       .  S
Ni36        O595   1.913       .  S
Ni36        Ni37   2.376       .  S
Ni37        O596   1.924       .  S
Ni37        O599   1.911       .  S
C38         C272   1.502       .  S
C39         C185   1.498       .  S
C40         C160   1.508       .  S
C41         C227   1.503       .  S
C42          C43   1.405       .  A
C42          C47   1.407       .  A
C42         C244   1.489       .  S
C43          C44   1.402       .  A
C43          H48   1.085       .  S
C44          C45   1.400       .  A
C44         C157   1.486       .  S
C45          C46   1.400       .  A
C45          H49   1.082       .  S
C46          C47   1.404       .  A
C46         C146   1.486       .  S
C47          H50   1.084       .  S
C51          C57   1.535       .  S
C51          C55   1.541       .  S
C51         C616   1.549       .  S
C51         C115   1.563       .  S
C52         C615   1.549       .  S
C52          H59   1.080       .  S
C52          C53   1.364       .  D
C53         C618   1.534   1_455  S
C53         C255   1.503       .  S
C54          C58   1.556       .  S
C54          C56   1.549       .  S
C54         C617   1.534       .  S
C54          H60   1.103       .  S
C55          H61   1.083       .  S
C55          C56   1.375       .  D
C56         C143   1.526       .  S
C57          H62   1.086       .  S
C57          C58   1.362       .  D
C58         C132   1.493       .  S
C63          C64   1.550       .  S
C63          C69   1.522       .  S
C63         C631   1.549       .  S
C63          C90   1.556       .  S
C64          H71   1.081       .  S
C64          C65   1.371       .  D
C65          C66   1.541       .  S
C65         C174   1.513       .  S
C66          C70   1.550       .  S
C66         C632   1.541       .  S
C66          H72   1.102       .  S
C67         C627   1.549   1_455  S
C67          H73   1.084       .  S
C67          C68   1.373       .  D
C68         C630   1.541   1_455  S
C68         C213   1.515       .  S
C69          H74   1.087       .  S
C69          C70   1.356       .  D
C70         C101   1.485       .  S
C75         C118   1.498       .  S
C75          N76   1.359       .  A
C75         N362   1.362       .  A
N76         C359   1.359       .  A
C77          C85   1.471       .  S
C77          N78   1.361       .  A
C77         N358   1.359   1_554  A
N78          C79   1.358       .  A
C79         C129   1.485       .  S
C79          N80   1.357       .  A
N80         C357   1.362   1_554  A
C81          C87   1.483       .  S
C81          N86   1.360       .  A
C81         N364   1.359       .  A
N82          C83   1.359       .  A
N82         C363   1.359   1_554  A
C83         C104   1.477       .  S
C83          N84   1.356       .  A
N84          C85   1.357   1_565  A
C85         N368   1.360   1_544  A
N86         C367   1.359   1_565  A
C87          C88   1.406       .  A
C87         C656   1.406       .  A
C88          C89   1.414       .  A
C88          C93   1.452       .  S
C89          C90   1.428       .  A
C89          C96   1.450       .  S
C90         C655   1.428       .  A
C91          C92   1.413       .  A
C91         C654   1.428   1_455  A
C91          C94   1.451       .  S
C92         C651   1.406   1_455  A
C92          C95   1.452       .  S
C93         N100   1.157       .  T
C94          N99   1.157       .  T
C95          N97   1.157       .  T
C96          N98   1.158       .  T
C101        C102   1.411       .  A
C101        C670   1.412       .  A
C102        C103   1.411       .  A
C102        C107   1.451       .  S
C103        C104   1.411       .  A
C103        C110   1.450       .  S
C104        C669   1.410       .  A
C105        C106   1.410       .  A
C105        C668   1.410   1_455  A
C105        C108   1.451       .  S
C106        C665   1.412   1_455  A
C106        C109   1.451       .  S
C107        N114   1.157       .  T
C108        N113   1.157       .  T
C109        N111   1.157       .  T
C110        N112   1.157       .  T
C115        C120   1.428       .  A
C115        C680   1.430       .  A
C116        C117   1.413       .  A
C116        C679   1.431       .  A
C116        C121   1.447       .  S
C117        C682   1.410       .  A
C117        C124   1.456       .  S
C118        C119   1.414       .  A
C118        C681   1.410       .  A
C119        C120   1.417       .  A
C119        C122   1.453       .  S
C120        C123   1.453       .  S
C121        N128   1.157       .  T
C122        N127   1.158       .  T
C123        N125   1.157       .  T
C124        N408   1.158       .  T
N126        C406   1.158   1_554  T
C129        C134   1.411       .  A
C129        C694   1.412       .  A
C130        C131   1.413       .  A
C130        C693   1.412       .  A
C130        C135   1.450       .  S
C131        C696   1.413       .  A
C131        C138   1.451       .  S
C132        C133   1.413       .  A
C132        C695   1.413       .  A
C133        C134   1.413       .  A
C133        C136   1.451       .  S
C134        C137   1.450       .  S
C135        N142   1.157       .  T
C136        N141   1.157       .  T
C137        N139   1.157       .  T
C138        N140   1.157       .  T
C143        C144   1.433       .  A
C143        C148   1.430       .  A
C144        C145   1.412       .  A
C144        C149   1.451       .  S
C145        C146   1.403       .  A
C145        C152   1.454       .  S
C146        C147   1.404       .  A
C147        C148   1.416       .  A
C147        C150   1.453       .  S
C148        C151   1.448       .  S
C149        N156   1.158       .  T
C150        N155   1.157       .  T
C151        N153   1.158       .  T
C152        N154   1.157       .  T
C157        C158   1.407       .  A
C157        C162   1.407       .  A
C158        C159   1.413       .  A
C158        C163   1.451       .  S
C159        C160   1.425       .  A
C159        C166   1.451       .  S
C160        C161   1.427       .  A
C161        C162   1.411       .  A
C161        C164   1.452       .  S
C162        C165   1.453       .  S
C163        N170   1.157       .  T
C164        N169   1.158       .  T
C165        N167   1.157       .  T
C166        N168   1.158       .  T
C171        C172   1.406       .  A
C171        C176   1.405       .  A
C172        C173   1.412       .  A
C172        C177   1.453       .  S
C173        C174   1.426       .  A
C173        C180   1.450       .  S
C174        C175   1.424       .  A
C175        C176   1.412       .  A
C175        C178   1.447       .  S
C176        C179   1.453       .  S
C177        N184   1.157       .  T
C178        N183   1.157       .  T
C179        N181   1.157       .  T
C180        N182   1.157       .  T
C185        C186   1.420       .  A
C185        C190   1.420       .  A
C186        C187   1.410       .  A
C186        C191   1.450       .  S
C187        C188   1.409       .  A
C187        C194   1.452       .  S
C188        C189   1.409       .  A
C189        C190   1.412       .  A
C189        C192   1.451       .  S
C190        C193   1.451       .  S
C191        N198   1.157       .  T
C192        N197   1.157       .  T
C193        N195   1.157       .  T
C194        N196   1.157       .  T
C199        C200   1.413       .  A
C199        C204   1.413       .  A
C200        C201   1.411       .  A
C200        C205   1.451       .  S
C201        C202   1.412       .  A
C201        C208   1.451       .  S
C202        C203   1.412       .  A
C203        C204   1.409       .  A
C203        C206   1.451       .  S
C204        C207   1.451       .  S
C205        N212   1.157       .  T
C206        N211   1.157       .  T
C207        N209   1.157       .  T
C208        N210   1.157       .  T
C213        C214   1.426       .  A
C213        C218   1.427       .  A
C214        C215   1.413       .  A
C214        C219   1.447       .  S
C215        C216   1.404       .  A
C215        C222   1.453       .  S
C216        C217   1.405       .  A
C217        C218   1.412       .  A
C217        C220   1.453       .  S
C218        C221   1.450       .  S
C219        N226   1.157       .  T
C220        N225   1.157       .  T
C221        N223   1.157       .  T
C222        N224   1.157       .  T
C227        C228   1.423       .  A
C227        C232   1.424       .  A
C228        C229   1.412       .  A
C228        C233   1.449       .  S
C229        C230   1.408       .  A
C229        C236   1.452       .  S
C230        C231   1.407       .  A
C231        C232   1.410       .  A
C231        C234   1.453       .  S
C232        C235   1.450       .  S
C233        N240   1.157       .  T
C234        N239   1.157       .  T
C235        N237   1.157       .  T
C236        N238   1.157       .  T
C241        C242   1.412       .  A
C241        C246   1.413       .  A
C242        C243   1.411       .  A
C242        C247   1.451       .  S
C243        C244   1.412       .  A
C243        C250   1.450       .  S
C244        C245   1.413       .  A
C245        C246   1.413       .  A
C245        C248   1.451       .  S
C246        C249   1.451       .  S
C247        N254   1.157       .  T
C248        N253   1.157       .  T
C249        N251   1.157       .  T
C250        N252   1.157       .  T
C255        C256   1.417       .  A
C255        C260   1.418       .  A
C256        C257   1.415       .  A
C256        C261   1.447       .  S
C257        C258   1.411       .  A
C257        C264   1.451       .  S
C258        C259   1.409       .  A
C259        C260   1.408       .  A
C259        C262   1.454       .  S
C260        C263   1.448       .  S
C261        N268   1.157       .  T
C262        N267   1.157       .  T
C263        N829   1.156       .  T
C264        N266   1.157       .  T
N265        C827   1.156       .  T
C269        C270   1.409       .  A
C269        C274   1.409       .  A
C270        C271   1.414       .  A
C270        C275   1.452       .  S
C271        C272   1.421       .  A
C271        C278   1.449       .  S
C272        C273   1.424       .  A
C273        C274   1.409       .  A
C273        C276   1.452       .  S
C274        C277   1.453       .  S
C275        N282   1.157       .  T
C276        N281   1.158       .  T
C277        N279   1.157       .  T
C278        N280   1.157       .  T
C283        C284   1.407       .  A
C283        C288   1.407       .  A
C283        C523   1.489       .  S
C284        C285   1.404       .  A
C284        H289   1.086       .  S
C285        C286   1.399       .  A
C285        C540   1.488       .  S
C286        C287   1.399       .  A
C286        H290   1.082       .  S
C287        C288   1.402       .  A
C287        C551   1.487       .  S
C288        H291   1.084       .  S
C292        C293   1.406       .  A
C292        C297   1.403       .  A
C292        C484   1.485       .  S
C293        C294   1.403       .  A
C293        H298   1.083       .  S
C294        C295   1.400       .  A
C294        C498   1.482       .  S
C295        C296   1.399       .  A
C295        H299   1.085       .  S
C296        C297   1.400       .  A
C296        C512   1.483       .  S
C297        H300   1.084       .  S
C301        C302   1.406       .  A
C301        C306   1.404       .  A
C301        C481   1.486       .  S
C302        C303   1.403       .  A
C302        H307   1.083       .  S
C303        C304   1.401       .  A
C303        C470   1.485       .  S
C304        C305   1.398       .  A
C304        H308   1.084       .  S
C305        C306   1.400       .  A
C305        C453   1.483       .  S
C306        H309   1.084       .  S
O310        C320   1.283       .  A
O310       Ni882   1.927   1_455  S
O311        C321   1.282       .  A
O311       Ni318   1.918       .  S
O312        C322   1.279       .  A
O312       Ni318   1.909       .  S
O313        C323   1.280       .  A
O313       Ni882   1.912   1_455  S
O314        C323   1.283       .  A
O314       Ni883   1.925   1_455  S
O315        C322   1.283       .  A
O315       Ni319   1.924       .  S
O316        C321   1.281       .  A
O316       Ni319   1.918       .  S
O317        C320   1.280       .  A
O317       Ni883   1.911   1_455  S
Ni318       O874   1.927       .  S
Ni318       O877   1.913       .  S
Ni318      Ni319   2.376       .  S
Ni319       O878   1.925       .  S
Ni319       O881   1.911       .  S
C320        C554   1.502       .  S
C321        C467   1.498       .  S
C322        C442   1.508       .  S
C323        C509   1.503       .  S
C324        C325   1.406       .  A
C324        C329   1.407       .  A
C324        C526   1.489       .  S
C325        C326   1.402       .  A
C325        H330   1.085       .  S
C326        C327   1.401       .  A
C326        C439   1.487       .  S
C327        C328   1.400       .  A
C327        H331   1.082       .  S
C328        C329   1.404       .  A
C328        C428   1.486       .  S
C329        H332   1.084       .  S
C333        C898   1.549       .  S
C333        C339   1.535       .  S
C333        C337   1.541       .  S
C333        C397   1.563       .  S
C334        C897   1.550       .  S
C334        H341   1.080       .  S
C334        C335   1.364       .  D
C335        C900   1.534   1_455  S
C335        C537   1.503       .  S
C336        C899   1.534       .  S
C336        C340   1.556       .  S
C336        C338   1.548       .  S
C336        H342   1.103       .  S
C337        H343   1.083       .  S
C337        C338   1.375       .  D
C338        C425   1.526       .  S
C339        H344   1.086       .  S
C339        C340   1.362       .  D
C340        C414   1.493       .  S
C345        C346   1.550       .  S
C345        C351   1.522       .  S
C345        C913   1.550       .  S
C345        C372   1.556       .  S
C346        H353   1.081       .  S
C346        C347   1.372       .  D
C347        C348   1.541       .  S
C347        C456   1.513       .  S
C348        C352   1.550       .  S
C348        C914   1.541       .  S
C348        H354   1.102       .  S
C349        C909   1.550   1_455  S
C349        H355   1.083       .  S
C349        C350   1.373       .  D
C350        C912   1.541   1_455  S
C350        C495   1.515       .  S
C351        H356   1.087       .  S
C351        C352   1.356       .  D
C352        C383   1.485       .  S
C357        C400   1.498       .  S
C357        N358   1.359       .  A
C359        C367   1.471       .  S
C359        N360   1.360       .  A
N360        C361   1.358       .  A
C361        C411   1.485       .  S
C361        N362   1.357       .  A
C363        C369   1.483       .  S
C363        N368   1.360       .  A
N364        C365   1.359       .  A
C365        C386   1.477       .  S
C365        N366   1.356       .  A
N366        C367   1.357   1_565  A
C369        C370   1.406       .  A
C369        C938   1.406       .  A
C370        C371   1.414       .  A
C370        C375   1.452       .  S
C371        C372   1.428       .  A
C371        C378   1.450       .  S
C372        C937   1.428       .  A
C373        C936   1.428   1_455  A
C373        C374   1.413       .  A
C373        C376   1.451       .  S
C374        C933   1.406   1_455  A
C374        C377   1.452       .  S
C375        N382   1.157       .  T
C376        N381   1.157       .  T
C377        N379   1.157       .  T
C378        N380   1.158       .  T
C383        C384   1.411       .  A
C383        C952   1.412       .  A
C384        C385   1.411       .  A
C384        C389   1.451       .  S
C385        C386   1.411       .  A
C385        C392   1.450       .  S
C386        C951   1.410       .  A
C387        C950   1.410   1_455  A
C387        C388   1.410       .  A
C387        C390   1.451       .  S
C388        C947   1.412   1_455  A
C388        C391   1.451       .  S
C389        N396   1.157       .  T
C390        N395   1.157       .  T
C391        N393   1.157       .  T
C392        N394   1.157       .  T
C397        C962   1.431       .  A
C397        C402   1.428       .  A
C398        C961   1.431       .  A
C398        C399   1.413       .  A
C398        C403   1.447       .  S
C399        C964   1.410   1_455  A
C399        C406   1.456       .  S
C400        C963   1.410       .  A
C400        C401   1.414       .  A
C401        C402   1.417       .  A
C401        C404   1.453       .  S
C402        C405   1.453       .  S
C403        N410   1.157       .  T
C404        N409   1.158       .  T
C405        N407   1.157       .  T
C411        C976   1.412       .  A
C411        C416   1.411       .  A
C412        C975   1.412       .  A
C412        C413   1.414       .  A
C412        C417   1.450       .  S
C413        C978   1.413       .  A
C413        C420   1.451       .  S
C414        C977   1.413       .  A
C414        C415   1.413       .  A
C415        C416   1.413       .  A
C415        C418   1.451       .  S
C416        C419   1.450       .  S
C417        N424   1.157       .  T
C418        N423   1.157       .  T
C419        N421   1.157       .  T
C420        N422   1.157       .  T
C425        C426   1.433       .  A
C425        C430   1.430       .  A
C426        C427   1.412       .  A
C426        C431   1.451       .  S
C427        C428   1.403       .  A
C427        C434   1.454       .  S
C428        C429   1.404       .  A
C429        C430   1.416       .  A
C429        C432   1.453       .  S
C430        C433   1.448       .  S
C431        N438   1.158       .  T
C432        N437   1.157       .  T
C433        N435   1.158       .  T
C434        N436   1.157       .  T
C439        C440   1.408       .  A
C439        C444   1.408       .  A
C440        C441   1.413       .  A
C440        C445   1.451       .  S
C441        C442   1.424       .  A
C441        C448   1.451       .  S
C442        C443   1.427       .  A
C443        C444   1.411       .  A
C443        C446   1.452       .  S
C444        C447   1.453       .  S
C445        N452   1.157       .  T
C446        N451   1.158       .  T
C447        N449   1.157       .  T
C448        N450   1.158       .  T
C453        C454   1.406       .  A
C453        C458   1.405       .  A
C454        C455   1.412       .  A
C454        C459   1.453       .  S
C455        C456   1.426       .  A
C455        C462   1.450       .  S
C456        C457   1.424       .  A
C457        C458   1.413       .  A
C457        C460   1.447       .  S
C458        C461   1.453       .  S
C459        N466   1.157       .  T
C460        N465   1.157       .  T
C461        N463   1.157       .  T
C462        N464   1.157       .  T
C467        C468   1.420       .  A
C467        C472   1.419       .  A
C468        C469   1.410       .  A
C468        C473   1.450       .  S
C469        C470   1.409       .  A
C469        C476   1.452       .  S
C470        C471   1.409       .  A
C471        C472   1.412       .  A
C471        C474   1.451       .  S
C472        C475   1.451       .  S
C473        N480   1.157       .  T
C474        N479   1.157       .  T
C475        N477   1.157       .  T
C476        N478   1.157       .  T
C481        C482   1.413       .  A
C481        C486   1.413       .  A
C482        C483   1.411       .  A
C482        C487   1.451       .  S
C483        C484   1.412       .  A
C483        C490   1.451       .  S
C484        C485   1.412       .  A
C485        C486   1.409       .  A
C485        C488   1.451       .  S
C486        C489   1.451       .  S
C487        N494   1.157       .  T
C488        N493   1.157       .  T
C489        N491   1.157       .  T
C490        N492   1.157       .  T
C495        C496   1.426       .  A
C495        C500   1.427       .  A
C496        C497   1.413       .  A
C496        C501   1.447       .  S
C497        C498   1.404       .  A
C497        C504   1.454       .  S
C498        C499   1.405       .  A
C499        C500   1.412       .  A
C499        C502   1.453       .  S
C500        C503   1.450       .  S
C501        N508   1.157       .  T
C502        N507   1.157       .  T
C503        N505   1.157       .  T
C504        N506   1.157       .  T
C509        C510   1.423       .  A
C509        C514   1.424       .  A
C510        C511   1.412       .  A
C510        C515   1.449       .  S
C511        C512   1.408       .  A
C511        C518   1.452       .  S
C512        C513   1.407       .  A
C513        C514   1.410       .  A
C513        C516   1.453       .  S
C514        C517   1.450       .  S
C515        N522   1.157       .  T
C516        N521   1.157       .  T
C517        N519   1.157       .  T
C518        N520   1.157       .  T
C523        C524   1.412       .  A
C523        C528   1.413       .  A
C524        C525   1.411       .  A
C524        C529   1.451       .  S
C525        C526   1.412       .  A
C525        C532   1.450       .  S
C526        C527   1.413       .  A
C527        C528   1.413       .  A
C527        C530   1.451       .  S
C528        C531   1.451       .  S
C529        N536   1.157       .  T
C530        N535   1.157       .  T
C531        N533   1.157       .  T
C532        N534   1.157       .  T
C537        C538   1.417       .  A
C537        C542   1.418       .  A
C538        C539   1.416       .  A
C538        C543   1.447       .  S
C539        C540   1.411       .  A
C539        C546   1.451       .  S
C540        C541   1.409       .  A
C541        C542   1.408       .  A
C541        C544   1.454       .  S
C542        C545   1.448       .  S
C543        N550   1.157       .  T
C544        N549   1.157       .  T
C545       N1111   1.156       .  T
C546        N548   1.157       .  T
N547       C1109   1.156       .  T
C551        C552   1.409       .  A
C551        C556   1.409       .  A
C552        C553   1.414       .  A
C552        C557   1.452       .  S
C553        C554   1.421       .  A
C553        C560   1.449       .  S
C554        C555   1.424       .  A
C555        C556   1.410       .  A
C555        C558   1.452       .  S
C556        C559   1.453       .  S
C557        N564   1.157       .  T
C558        N563   1.158       .  T
C559        N561   1.157       .  T
C560        N562   1.157       .  T
C565        C566   1.407       .  A
C565        C570   1.406       .  A
C565        C805   1.488       .  S
C566        C567   1.404       .  A
C566        H571   1.086       .  S
C567        C568   1.399       .  A
C567        C822   1.488       .  S
C568        C569   1.399       .  A
C568        H572   1.082       .  S
C569        C570   1.402       .  A
C569        C833   1.487       .  S
C570        H573   1.084       .  S
C574        C575   1.406       .  A
C574        C579   1.403       .  A
C574        C766   1.484       .  S
C575        C576   1.403       .  A
C575        H580   1.083       .  S
C576        C577   1.400       .  A
C576        C780   1.482       .  S
C577        C578   1.399       .  A
C577        H581   1.085       .  S
C578        C579   1.400       .  A
C578        C794   1.483       .  S
C579        H582   1.084       .  S
C583        C584   1.406       .  A
C583        C588   1.404       .  A
C583        C763   1.486       .  S
C584        C585   1.403       .  A
C584        H589   1.083       .  S
C585        C586   1.401       .  A
C585        C752   1.485       .  S
C586        C587   1.398       .  A
C586        H590   1.084       .  S
C587        C588   1.400       .  A
C587        C735   1.484       .  S
C588        H591   1.084       .  S
O592        C602   1.283       .  A
O593        C603   1.282       .  A
O593       Ni600   1.918       .  S
O594        C604   1.279       .  A
O594       Ni600   1.908       .  S
O595        C605   1.281       .  A
O596        C605   1.283       .  A
O597        C604   1.283       .  A
O597       Ni601   1.925       .  S
O598        C603   1.281       .  A
O598       Ni601   1.918       .  S
O599        C602   1.280       .  A
Ni600      Ni601   2.376       .  S
C602        C836   1.502       .  S
C603        C749   1.497       .  S
C604        C724   1.507       .  S
C605        C791   1.503       .  S
C606        C607   1.405       .  A
C606        C611   1.407       .  A
C606        C808   1.488       .  S
C607        C608   1.402       .  A
C607        H612   1.085       .  S
C608        C609   1.401       .  A
C608        C721   1.487       .  S
C609        C610   1.400       .  A
C609        H613   1.082       .  S
C610        C611   1.404       .  A
C610        C710   1.486       .  S
C611        H614   1.084       .  S
C615        C621   1.535       .  S
C615        C619   1.541   1_455  S
C615        C679   1.564       .  S
C616        H623   1.081       .  S
C616        C617   1.364       .  D
C617        C819   1.502       .  S
C618        C622   1.555   1_655  S
C618        C620   1.548       .  S
C618        H624   1.103       .  S
C619        H625   1.083       .  S
C619        C620   1.375       .  D
C620        C707   1.526       .  S
C621        H626   1.086       .  S
C621        C622   1.362       .  D
C622        C696   1.493       .  S
C627        C628   1.550       .  S
C627        C633   1.522       .  S
C627        C654   1.556       .  S
C628        H635   1.081       .  S
C628        C629   1.372       .  D
C629        C630   1.541       .  S
C629        C738   1.513       .  S
C630        C634   1.550       .  S
C630        H636   1.102       .  S
C631        H637   1.083       .  S
C631        C632   1.373       .  D
C632        C777   1.515       .  S
C633        H638   1.087       .  S
C633        C634   1.356       .  D
C634        C665   1.485       .  S
C639        C682   1.498   1_655  S
C639        N640   1.359   1_655  A
C639        N926   1.362       .  A
N640        C923   1.359       .  A
C641        C649   1.471   1_455  S
C641        N922   1.359   1_554  A
C641        N642   1.360       .  A
N642        C643   1.358       .  A
C643        C693   1.485       .  S
C643        N644   1.357   1_455  A
N644        C921   1.362   1_554  A
C645        C651   1.483       .  S
C645        N928   1.359       .  A
C645        N650   1.360       .  A
N646        C927   1.359   1_554  A
N646        C647   1.359       .  A
C647        C668   1.477       .  S
C647        N648   1.356       .  A
N648        C649   1.357   1_565  A
C649        N932   1.359   1_544  A
N650        C931   1.360   1_565  A
C651        C652   1.406       .  A
C652        C653   1.414       .  A
C652        C657   1.452       .  S
C653        C654   1.428       .  A
C653        C660   1.450       .  S
C655        C656   1.413       .  A
C655        C658   1.451       .  S
C656        C659   1.452       .  S
C657        N664   1.157       .  T
C658        N663   1.157       .  T
C659        N661   1.157       .  T
C660        N662   1.158       .  T
C665        C666   1.411       .  A
C666        C667   1.411       .  A
C666        C671   1.451       .  S
C667        C668   1.411       .  A
C667        C674   1.450       .  S
C669        C670   1.410       .  A
C669        C672   1.451       .  S
C670        C673   1.451       .  S
C671        N678   1.157       .  T
C672        N677   1.157       .  T
C673        N675   1.157       .  T
C674        N676   1.157       .  T
C679        C684   1.429   1_455  A
C680        C681   1.413       .  A
C680        C685   1.447       .  S
C681        C688   1.456       .  S
C682        C683   1.413   1_455  A
C683        C684   1.417       .  A
C683        C686   1.453       .  S
C684        C687   1.453       .  S
C685        N692   1.157       .  T
C686        N691   1.158       .  T
C687        N689   1.157       .  T
C688        N972   1.158       .  T
N690        C970   1.158   1_554  T
C693        C698   1.411   1_455  A
C694        C695   1.414       .  A
C694        C699   1.450       .  S
C695        C702   1.451       .  S
C696        C697   1.413   1_455  A
C697        C698   1.413       .  A
C697        C700   1.451       .  S
C698        C701   1.450       .  S
C699        N706   1.157       .  T
C700        N705   1.157       .  T
C701        N703   1.157       .  T
C702        N704   1.157       .  T
C707        C708   1.433       .  A
C707        C712   1.430       .  A
C708        C709   1.412       .  A
C708        C713   1.451       .  S
C709        C710   1.403       .  A
C709        C716   1.454       .  S
C710        C711   1.404       .  A
C711        C712   1.416       .  A
C711        C714   1.453       .  S
C712        C715   1.448       .  S
C713        N720   1.158       .  T
C714        N719   1.157       .  T
C715        N717   1.158       .  T
C716        N718   1.157       .  T
C721        C722   1.408       .  A
C721        C726   1.408       .  A
C722        C723   1.413       .  A
C722        C727   1.451       .  S
C723        C724   1.424       .  A
C723        C730   1.451       .  S
C724        C725   1.427       .  A
C725        C726   1.411       .  A
C725        C728   1.452       .  S
C726        C729   1.453       .  S
C727        N734   1.157       .  T
C728        N733   1.158       .  T
C729        N731   1.157       .  T
C730        N732   1.158       .  T
C735        C736   1.406       .  A
C735        C740   1.405       .  A
C736        C737   1.412       .  A
C736        C741   1.453       .  S
C737        C738   1.426       .  A
C737        C744   1.450       .  S
C738        C739   1.424       .  A
C739        C740   1.412       .  A
C739        C742   1.447       .  S
C740        C743   1.453       .  S
C741        N748   1.157       .  T
C742        N747   1.157       .  T
C743        N745   1.157       .  T
C744        N746   1.157       .  T
C749        C750   1.419       .  A
C749        C754   1.419       .  A
C750        C751   1.410       .  A
C750        C755   1.450       .  S
C751        C752   1.410       .  A
C751        C758   1.452       .  S
C752        C753   1.410       .  A
C753        C754   1.413       .  A
C753        C756   1.451       .  S
C754        C757   1.451       .  S
C755        N762   1.157       .  T
C756        N761   1.157       .  T
C757        N759   1.157       .  T
C758        N760   1.157       .  T
C763        C764   1.413       .  A
C763        C768   1.413       .  A
C764        C765   1.411       .  A
C764        C769   1.451       .  S
C765        C766   1.412       .  A
C765        C772   1.451       .  S
C766        C767   1.412       .  A
C767        C768   1.409       .  A
C767        C770   1.451       .  S
C768        C771   1.451       .  S
C769        N776   1.157       .  T
C770        N775   1.157       .  T
C771        N773   1.157       .  T
C772        N774   1.157       .  T
C777        C778   1.426       .  A
C777        C782   1.427       .  A
C778        C779   1.413       .  A
C778        C783   1.447       .  S
C779        C780   1.404       .  A
C779        C786   1.454       .  S
C780        C781   1.405       .  A
C781        C782   1.412       .  A
C781        C784   1.453       .  S
C782        C785   1.450       .  S
C783        N790   1.157       .  T
C784        N789   1.157       .  T
C785        N787   1.157       .  T
C786        N788   1.157       .  T
C791        C792   1.423       .  A
C791        C796   1.424       .  A
C792        C793   1.412       .  A
C792        C797   1.449       .  S
C793        C794   1.408       .  A
C793        C800   1.452       .  S
C794        C795   1.407       .  A
C795        C796   1.410       .  A
C795        C798   1.453       .  S
C796        C799   1.450       .  S
C797        N804   1.157       .  T
C798        N803   1.157       .  T
C799        N801   1.157       .  T
C800        N802   1.157       .  T
C805        C806   1.412       .  A
C805        C810   1.413       .  A
C806        C807   1.411       .  A
C806        C811   1.451       .  S
C807        C808   1.412       .  A
C807        C814   1.450       .  S
C808        C809   1.413       .  A
C809        C810   1.413       .  A
C809        C812   1.451       .  S
C810        C813   1.451       .  S
C811        N818   1.157       .  T
C812        N817   1.157       .  T
C813        N815   1.157       .  T
C814        N816   1.157       .  T
C819        C820   1.416       .  A
C819        C824   1.418       .  A
C820        C821   1.415       .  A
C820        C825   1.447       .  S
C821        C822   1.411       .  A
C821        C828   1.451       .  S
C822        C823   1.409       .  A
C823        C824   1.408       .  A
C823        C826   1.454       .  S
C824        C827   1.448       .  S
C825        N832   1.157       .  T
C826        N831   1.157       .  T
C828        N830   1.157       .  T
C833        C834   1.409       .  A
C833        C838   1.409       .  A
C834        C835   1.414       .  A
C834        C839   1.452       .  S
C835        C836   1.421       .  A
C835        C842   1.449       .  S
C836        C837   1.423       .  A
C837        C838   1.410       .  A
C837        C840   1.452       .  S
C838        C841   1.453       .  S
C839        N846   1.157       .  T
C840        N845   1.158       .  T
C841        N843   1.157       .  T
C842        N844   1.157       .  T
C847        C848   1.407       .  A
C847        C852   1.406       .  A
C847       C1087   1.488       .  S
C848        C849   1.404       .  A
C848        H853   1.086       .  S
C849        C850   1.399       .  A
C849       C1104   1.488       .  S
C850        C851   1.399       .  A
C850        H854   1.082       .  S
C851        C852   1.402       .  A
C851       C1115   1.487       .  S
C852        H855   1.084       .  S
C856        C857   1.406       .  A
C856        C861   1.404       .  A
C856       C1048   1.485       .  S
C857        C858   1.403       .  A
C857        H862   1.083       .  S
C858        C859   1.400       .  A
C858       C1062   1.483       .  S
C859        C860   1.399       .  A
C859        H863   1.084       .  S
C860        C861   1.400       .  A
C860       C1076   1.483       .  S
C861        H864   1.084       .  S
C865        C866   1.406       .  A
C865        C870   1.404       .  A
C865       C1045   1.486       .  S
C866        C867   1.403       .  A
C866        H871   1.083       .  S
C867        C868   1.401       .  A
C867       C1034   1.485       .  S
C868        C869   1.398       .  A
C868        H872   1.084       .  S
C869        C870   1.401       .  A
C869       C1017   1.484       .  S
C870        H873   1.084       .  S
O874        C884   1.283       .  A
O875        C885   1.282       .  A
O875       Ni882   1.918       .  S
O876        C886   1.279       .  A
O876       Ni882   1.908       .  S
O877        C887   1.280       .  A
O878        C887   1.283       .  A
O879        C886   1.283       .  A
O879       Ni883   1.924       .  S
O880        C885   1.281       .  A
O880       Ni883   1.918       .  S
O881        C884   1.280       .  A
Ni882      Ni883   2.376       .  S
C884       C1118   1.502       .  S
C885       C1031   1.498       .  S
C886       C1006   1.507       .  S
C887       C1073   1.503       .  S
C888        C889   1.406       .  A
C888        C893   1.407       .  A
C888       C1090   1.489       .  S
C889        C890   1.402       .  A
C889        H894   1.085       .  S
C890        C891   1.401       .  A
C890       C1003   1.487       .  S
C891        C892   1.400       .  A
C891        H895   1.082       .  S
C892        C893   1.404       .  A
C892        C992   1.486       .  S
C893        H896   1.084       .  S
C897        C903   1.535       .  S
C897        C901   1.541   1_455  S
C897        C961   1.564       .  S
C898        H905   1.080       .  S
C898        C899   1.364       .  D
C899       C1101   1.502       .  S
C900        C904   1.556   1_655  S
C900        C902   1.548       .  S
C900        H906   1.103       .  S
C901        H907   1.083       .  S
C901        C902   1.375       .  D
C902        C989   1.526       .  S
C903        H908   1.086       .  S
C903        C904   1.362       .  D
C904        C978   1.493       .  S
C909        C910   1.550       .  S
C909        C915   1.522       .  S
C909        C936   1.556       .  S
C910        H917   1.081       .  S
C910        C911   1.372       .  D
C911        C912   1.541       .  S
C911       C1020   1.513       .  S
C912        C916   1.550       .  S
C912        H918   1.102       .  S
C913        H919   1.084       .  S
C913        C914   1.373       .  D
C914       C1059   1.515       .  S
C915        H920   1.087       .  S
C915        C916   1.356       .  D
C916        C947   1.485       .  S
C921        C964   1.498       .  S
C921        N922   1.359   1_655  A
C923        C931   1.471   1_455  S
C923        N924   1.361       .  A
N924        C925   1.358       .  A
C925        C975   1.485       .  S
C925        N926   1.357   1_455  A
C927        C933   1.483       .  S
C927        N932   1.360       .  A
N928        C929   1.359       .  A
C929        C950   1.477       .  S
C929        N930   1.356       .  A
N930        C931   1.357   1_565  A
C933        C934   1.406       .  A
C934        C935   1.414       .  A
C934        C939   1.452       .  S
C935        C936   1.428       .  A
C935        C942   1.450       .  S
C937        C938   1.413       .  A
C937        C940   1.451       .  S
C938        C941   1.452       .  S
C939        N946   1.157       .  T
C940        N945   1.157       .  T
C941        N943   1.157       .  T
C942        N944   1.158       .  T
C947        C948   1.411       .  A
C948        C949   1.411       .  A
C948        C953   1.451       .  S
C949        C950   1.411       .  A
C949        C956   1.450       .  S
C951        C952   1.410       .  A
C951        C954   1.451       .  S
C952        C955   1.451       .  S
C953        N960   1.157       .  T
C954        N959   1.157       .  T
C955        N957   1.157       .  T
C956        N958   1.157       .  T
C961        C966   1.429   1_455  A
C962        C963   1.413       .  A
C962        C967   1.447       .  S
C963        C970   1.456       .  S
C964        C965   1.413       .  A
C965        C966   1.417       .  A
C965        C968   1.453       .  S
C966        C969   1.453       .  S
C967        N974   1.157       .  T
C968        N973   1.158       .  T
C969        N971   1.157       .  T
C975        C980   1.411   1_455  A
C976        C977   1.414       .  A
C976        C981   1.450       .  S
C977        C984   1.451       .  S
C978        C979   1.413   1_455  A
C979        C980   1.413       .  A
C979        C982   1.451       .  S
C980        C983   1.450       .  S
C981        N988   1.157       .  T
C982        N987   1.157       .  T
C983        N985   1.157       .  T
C984        N986   1.157       .  T
C989        C990   1.433       .  A
C989        C994   1.430       .  A
C990        C991   1.412       .  A
C990        C995   1.451       .  S
C991        C992   1.403       .  A
C991        C998   1.454       .  S
C992        C993   1.404       .  A
C993        C994   1.416       .  A
C993        C996   1.453       .  S
C994        C997   1.448       .  S
C995       N1002   1.158       .  T
C996       N1001   1.157       .  T
C997        N999   1.158       .  T
C998       N1000   1.157       .  T
C1003      C1004   1.408       .  A
C1003      C1008   1.408       .  A
C1004      C1005   1.413       .  A
C1004      C1009   1.451       .  S
C1005      C1006   1.424       .  A
C1005      C1012   1.451       .  S
C1006      C1007   1.427       .  A
C1007      C1008   1.411       .  A
C1007      C1010   1.452       .  S
C1008      C1011   1.453       .  S
C1009      N1016   1.157       .  T
C1010      N1015   1.158       .  T
C1011      N1013   1.157       .  T
C1012      N1014   1.158       .  T
C1017      C1018   1.406       .  A
C1017      C1022   1.405       .  A
C1018      C1019   1.412       .  A
C1018      C1023   1.453       .  S
C1019      C1020   1.426       .  A
C1019      C1026   1.450       .  S
C1020      C1021   1.424       .  A
C1021      C1022   1.412       .  A
C1021      C1024   1.447       .  S
C1022      C1025   1.453       .  S
C1023      N1030   1.157       .  T
C1024      N1029   1.157       .  T
C1025      N1027   1.157       .  T
C1026      N1028   1.157       .  T
C1031      C1032   1.419       .  A
C1031      C1036   1.419       .  A
C1032      C1033   1.410       .  A
C1032      C1037   1.450       .  S
C1033      C1034   1.409       .  A
C1033      C1040   1.452       .  S
C1034      C1035   1.409       .  A
C1035      C1036   1.412       .  A
C1035      C1038   1.451       .  S
C1036      C1039   1.451       .  S
C1037      N1044   1.157       .  T
C1038      N1043   1.157       .  T
C1039      N1041   1.157       .  T
C1040      N1042   1.157       .  T
C1045      C1046   1.413       .  A
C1045      C1050   1.413       .  A
C1046      C1047   1.411       .  A
C1046      C1051   1.451       .  S
C1047      C1048   1.412       .  A
C1047      C1054   1.451       .  S
C1048      C1049   1.412       .  A
C1049      C1050   1.409       .  A
C1049      C1052   1.451       .  S
C1050      C1053   1.451       .  S
C1051      N1058   1.157       .  T
C1052      N1057   1.157       .  T
C1053      N1055   1.157       .  T
C1054      N1056   1.157       .  T
C1059      C1060   1.426       .  A
C1059      C1064   1.427       .  A
C1060      C1061   1.413       .  A
C1060      C1065   1.447       .  S
C1061      C1062   1.404       .  A
C1061      C1068   1.453       .  S
C1062      C1063   1.405       .  A
C1063      C1064   1.412       .  A
C1063      C1066   1.453       .  S
C1064      C1067   1.450       .  S
C1065      N1072   1.157       .  T
C1066      N1071   1.157       .  T
C1067      N1069   1.157       .  T
C1068      N1070   1.157       .  T
C1073      C1074   1.423       .  A
C1073      C1078   1.423       .  A
C1074      C1075   1.412       .  A
C1074      C1079   1.449       .  S
C1075      C1076   1.408       .  A
C1075      C1082   1.452       .  S
C1076      C1077   1.407       .  A
C1077      C1078   1.410       .  A
C1077      C1080   1.453       .  S
C1078      C1081   1.450       .  S
C1079      N1086   1.157       .  T
C1080      N1085   1.157       .  T
C1081      N1083   1.157       .  T
C1082      N1084   1.157       .  T
C1087      C1088   1.412       .  A
C1087      C1092   1.413       .  A
C1088      C1089   1.411       .  A
C1088      C1093   1.451       .  S
C1089      C1090   1.412       .  A
C1089      C1096   1.450       .  S
C1090      C1091   1.413       .  A
C1091      C1092   1.413       .  A
C1091      C1094   1.451       .  S
C1092      C1095   1.451       .  S
C1093      N1100   1.157       .  T
C1094      N1099   1.157       .  T
C1095      N1097   1.157       .  T
C1096      N1098   1.157       .  T
C1101      C1102   1.417       .  A
C1101      C1106   1.418       .  A
C1102      C1103   1.415       .  A
C1102      C1107   1.447       .  S
C1103      C1104   1.411       .  A
C1103      C1110   1.451       .  S
C1104      C1105   1.409       .  A
C1105      C1106   1.408       .  A
C1105      C1108   1.454       .  S
C1106      C1109   1.448       .  S
C1107      N1114   1.157       .  T
C1108      N1113   1.157       .  T
C1110      N1112   1.157       .  T
C1115      C1116   1.409       .  A
C1115      C1120   1.409       .  A
C1116      C1117   1.414       .  A
C1116      C1121   1.452       .  S
C1117      C1118   1.421       .  A
C1117      C1124   1.449       .  S
C1118      C1119   1.424       .  A
C1119      C1120   1.410       .  A
C1119      C1122   1.452       .  S
C1120      C1123   1.453       .  S
C1121      N1128   1.157       .  T
C1122      N1127   1.158       .  T
C1123      N1125   1.157       .  T
C1124      N1126   1.157       .  T
