geometry optimzed in LAMMPS
_audit_creation_date              2020-11-30 
_audit_creation_method            'lammps2cif' 
_symmetry_space_group_name_H-M    'P1' 
_symmetry_Int_Tables_number       1 
_symmetry_cell_setting            triclinic 
loop_ 
_symmetry_equiv_pos_as_xyz 
  x,y,z 
_cell_length_a                    31.544762947080823 
_cell_length_b                    31.712523916725274 
_cell_length_c                    30.848907095488624 
_cell_angle_alpha                 88.2764827168959 
_cell_angle_beta                  90.0832356501306 
_cell_angle_gamma                 89.82351770074933 
loop_ 
_atom_site_label 
_atom_site_type_symbol 
_atom_site_fract_x 
_atom_site_fract_y 
_atom_site_fract_z 
_atom_site_charge 
C1          C  0.50149226  0.25077566  0.52409087     0.00590
C2          C  0.00132466  0.25128308  0.47972575     0.00580
C3          C  0.24944490  0.49944259  0.52205765     0.00590
C4          C  0.24945991  0.00272974  0.47814698     0.00580
C5          C  0.13714063  0.28053226  0.63896091     0.42480
N6          N  0.16446570  0.25589086  0.69773523     0.01370
C7          C  0.33226853  0.32703917  0.81967976    -0.06510
H8          H  0.35234718  0.32812535  0.64401414     0.06860
C9          C  0.34121804  0.17055317  0.66341413    -0.06860
Co10       Co  0.22346352  0.31466942  0.74285557     0.74180
N11         N  0.30287990  0.31693169  0.69193340    -0.26040
Co12       Co  0.32310774  0.27293502  0.74067683     0.74070
C13         C  0.36556878  0.20330605  0.63918858     0.42580
N14         N  0.23829681  0.15371574  0.70197790     0.00980
N15         N  0.33668251  0.22998262  0.69494872     0.01090
N16         N  0.26724094  0.35673039  0.82460993    -0.46880
H17         H  0.16870503  0.34548498  0.64741869     0.06850
N18         N  0.26401948  0.33181116  0.69449563     0.01380
N19         N  0.34061194  0.22894098  0.78983074     0.01120
C20         C  0.36276625  0.20010297  0.84908258     0.42720
N21         N  0.19932635  0.16873553  0.69959704    -0.25490
C22         C  0.16914977  0.31984634  0.82103445    -0.06410
N23         N  0.13973858  0.24633807  0.66523144    -0.46600
N24         N  0.36683520  0.23472992  0.82281367    -0.46820
C25         C  0.13729434  0.29482351  0.84278932     0.42490
N26         N  0.26979680  0.33199404  0.79026915     0.01360
N27         N  0.19754804  0.17185944  0.79503811    -0.25510
N28         N  0.17899198  0.29490492  0.69548046    -0.26010
N29         N  0.23508947  0.15350466  0.79667517     0.01000
H30         H  0.13996488  0.16410461  0.83152444     0.06890
H31         H  0.32402402  0.14013124  0.83895897     0.06930
N32         N  0.30769225  0.31480290  0.78729679    -0.26060
N33         N  0.32357183  0.19051655  0.69728005    -0.25670
N34         N  0.16347075  0.25904714  0.79162649     0.01370
C35         C  0.28671616  0.36034522  0.63565375     0.42760
C36         C  0.18076894  0.15167440  0.66455527    -0.06920
N37         N  0.32186045  0.19185040  0.79265388    -0.25670
H38         H  0.33716894  0.13765686  0.65623555     0.06910
N39         N  0.25327057  0.35742170  0.66204332    -0.46890
H40         H  0.14889846  0.15794865  0.65318240     0.06900
C41         C  0.19868689  0.12474153  0.84926282     0.42600
C42         C  0.16246494  0.31365963  0.65914860    -0.06420
Co43       Co  0.18006766  0.21354656  0.74603368     0.73820
N44         N  0.24825916  0.12828948  0.67072788    -0.46610
C45         C  0.30578346  0.35412907  0.84486729     0.42870
N46         N  0.13411293  0.25750022  0.82258363    -0.46600
Co47       Co  0.28043049  0.17123206  0.74753851     0.73890
C48         C  0.33384036  0.17151836  0.82875031    -0.06930
C49         C  0.32064994  0.33415906  0.65561207    -0.06490
N50         N  0.18299450  0.29574368  0.79002119    -0.26020
N51         N  0.36144381  0.23854078  0.66165322    -0.46780
H52         H  0.36484734  0.31770058  0.82519204     0.06870
C53         C  0.17298323  0.15628994  0.82673744    -0.06900
Cl54       Cl  0.25168509  0.24299410  0.74439845    -0.49900
C55         C  0.21416859  0.12536763  0.64534023     0.42630
H56         H  0.17802648  0.35237751  0.82531545     0.06840
N57         N  0.23665936  0.12352471  0.82807779    -0.46610
C58         C  0.13544344  0.22853413  0.35961188     0.42480
N59         N  0.16352155  0.25071415  0.30029528     0.01370
C60         C  0.33070949  0.17204711  0.18223138    -0.06510
H61         H  0.35010200  0.17280397  0.35668256     0.06830
C62         C  0.34406862  0.33052907  0.33488941    -0.06860
Co63       Co  0.22152510  0.18907143  0.25757199     0.74180
N64         N  0.30064004  0.18545632  0.30888522    -0.26040
Co65       Co  0.32220803  0.22795709  0.25953353     0.74070
C66         C  0.36715352  0.29675475  0.35959362     0.42580
N67         N  0.24039696  0.35018453  0.29477358     0.00980
N68         N  0.33621569  0.27092590  0.30456959     0.01090
N69         N  0.26550473  0.14291800  0.17809697    -0.46880
H70         H  0.16571213  0.16249319  0.35326859     0.06850
N71         N  0.26132050  0.17203230  0.30664725     0.01380
N72         N  0.34176603  0.27047936  0.21001617     0.01120
C73         C  0.36752212  0.29849768  0.15206451     0.42720
N74         N  0.20099739  0.33649861  0.29674957    -0.25490
C75         C  0.16855427  0.18347071  0.17845471    -0.06410
N76         N  0.13884546  0.26187402  0.33227169    -0.46600
N77         N  0.36956550  0.26385717  0.17863319    -0.46820
C78         C  0.13822481  0.20902481  0.15484681     0.42490
N79         N  0.26797657  0.16918045  0.21119772     0.01360
N80         N  0.19996909  0.33103964  0.20147365    -0.25510
N81         N  0.17721399  0.21138571  0.30385420    -0.26010
N82         N  0.23789300  0.34842852  0.19985818     0.01000
H83         H  0.14343579  0.33762116  0.16284725     0.06890
H84         H  0.32985590  0.35972061  0.16007336     0.06930
N85         N  0.30606235  0.18583383  0.21379233    -0.26060
N86         N  0.32502931  0.31098798  0.30141139    -0.25670
N87         N  0.16345857  0.24511115  0.20628711     0.01370
C88         C  0.28345951  0.14341390  0.36580144     0.42760
C89         C  0.18262379  0.35460099  0.33129658    -0.06920
N90         N  0.32401267  0.30808580  0.20609942    -0.25670
H91         H  0.34189103  0.36376896  0.34137916     0.06910
N92         N  0.24998034  0.14723054  0.33942115    -0.46890
H93         H  0.15046605  0.34967308  0.34211881     0.06900
C94         C  0.20299155  0.37508211  0.14499456     0.42600
C95         C  0.16018967  0.19416458  0.34058475    -0.06420
Co96       Co  0.18081087  0.29125744  0.25109776     0.73820
N97         N  0.25081153  0.37545904  0.32601360    -0.46610
C98         C  0.30417004  0.14433639  0.15811210     0.42870
N99         N  0.13524318  0.24691618  0.17409633    -0.46600
Co100      Co  0.28254705  0.33062684  0.25015039     0.73890
C101        C  0.33808971  0.32790138  0.17060370    -0.06930
C102        C  0.31809068  0.16798463  0.34535014    -0.06490
N103        N  0.18198507  0.20784375  0.20939869    -0.26020
N104        N  0.36041875  0.26147541  0.33804661    -0.46780
H105        H  0.36352372  0.18035854  0.17691946     0.06870
C106        C  0.17630471  0.34540342  0.16840912    -0.06900
Cl107      Cl  0.25170726  0.25975994  0.25445964    -0.49900
C108        C  0.21658381  0.37976737  0.35091630     0.42630
H109        H  0.17707513  0.15069103  0.17492434     0.06840
N110        N  0.24073017  0.37652406  0.16673211    -0.46610
O111        O  0.02593967  0.39161587  0.97116454    -0.80120
O112        O  0.02903651  0.10669698  0.02721380    -0.80140
O113        O  0.04130176  0.02671370  0.92318450    -0.80150
O114        O  0.05057403  0.47295369  0.07391378    -0.80090
O115        O  0.06622575  0.04140865  0.98778935    -0.80210
O116        O  0.06696890  0.45659889  0.00677081    -0.80130
O117        O  0.02509862  0.05820719  0.08074937    -0.80120
O118        O  0.01774362  0.44160999  0.91946039    -0.80150
C119        C  0.03030976  0.40427326  0.93260135     1.09570
C120        C  0.03598268  0.09538163  0.06577357     1.09460
C121        C  0.07203221  0.03753472  0.94725546     1.09600
C122        C  0.07767039  0.46098315  0.04617360     1.09470
O123        O  0.50620877  0.40857827  0.04764958    -0.80120
O124        O  0.50050905  0.08947629  0.95411618    -0.80190
O125        O  0.43011035  0.47056349  0.93329167    -0.80130
O126        O  0.43775405  0.02738598  0.07614043    -0.80110
O127        O  0.44903655  0.07673784  0.02693685    -0.80160
O128        O  0.44705654  0.42073398  0.98025969    -0.80130
O129        O  0.45923541  0.44836800  0.07576504    -0.80090
O130        O  0.45010274  0.04988931  0.93283213    -0.80160
Co131      Co  0.00731036  0.44172425  0.99267219     1.51530
Co132      Co  0.00823492  0.05628090  0.00849860     1.51690
Co133      Co  0.98507267  0.49788910  0.93334299     1.51570
Co134      Co  0.99293707  0.00093146  0.07049925     1.51470
O135        O  0.98729764  0.99903339  0.00197565    -1.42050
C136        C  0.47407966  0.41226505  0.07034960     1.09500
C137        C  0.46588865  0.08587585  0.93549285     1.09590
C138        C  0.42071663  0.43686400  0.95302320     1.09530
C139        C  0.42542184  0.06025431  0.05642028     1.09500
C140        C  0.13666381  0.40783611  0.04885130    -0.21280
C141        C  0.12015161  0.44648124  0.06238736    -0.09330
C142        C  0.13965375  0.46568217  0.09794723     0.29530
C143        C  0.17215239  0.44480589  0.12160177    -0.21280
C144        C  0.18550785  0.40419304  0.11065544    -0.09340
C145        C  0.16855150  0.38669424  0.07291803     0.29540
F146        F  0.17946076  0.34692062  0.06209609    -0.19860
H147        H  0.12179936  0.39174060  0.02238425     0.17900
H148        H  0.18367560  0.45850312  0.15111246     0.17910
F149        F  0.12497770  0.50316998  0.11193184    -0.19850
C150        C  0.12789285  0.15923108  0.09793996    -0.21280
C151        C  0.10938339  0.18928592  0.12458339    -0.09330
C152        C  0.06546599  0.18853434  0.13180707     0.29530
C153        C  0.04098214  0.15635963  0.11424093    -0.21280
C154        C  0.06068044  0.12437260  0.09092795    -0.09340
C155        C  0.10405144  0.12644500  0.08228290     0.29540
F156        F  0.12338138  0.09637427  0.05885944    -0.19860
H157        H  0.16182017  0.15907516  0.09239824     0.17900
H158        H  0.00698894  0.15613080  0.11902685     0.17910
F159        F  0.04693928  0.21696658  0.15783404    -0.19850
C160        C  0.36003959  0.05654297  0.10288265    -0.21280
C161        C  0.38469438  0.07939628  0.07185567    -0.09330
C162        C  0.37375265  0.12177587  0.06293229     0.29530
C163        C  0.34240560  0.14156373  0.08774814    -0.21280
C164        C  0.32107905  0.11965549  0.12171172    -0.09340
C165        C  0.32900807  0.07641236  0.12778585     0.29540
F166        F  0.31091450  0.05462183  0.16146249    -0.19860
H167        H  0.36716633  0.02374728  0.11063884     0.17900
H168        H  0.33754206  0.17521645  0.08309091     0.17910
F169        F  0.39602925  0.14526009  0.03346410    -0.19850
C170        C  0.40928344  0.37046526  0.06890872    -0.21280
C171        C  0.45059906  0.37500667  0.08434554    -0.09330
C172        C  0.46780674  0.34495400  0.11373348     0.29530
C173        C  0.44154401  0.31373133  0.13195834    -0.21280
C174        C  0.39863959  0.31249430  0.12006460    -0.09340
C175        C  0.38366074  0.33867273  0.08586172     0.29540
F176        F  0.34239533  0.33734610  0.07332281    -0.19860
H177        H  0.39609712  0.39296080  0.04540192     0.17900
H178        H  0.45332767  0.29399769  0.15863593     0.17910
F179        F  0.50831284  0.34852883  0.12802476    -0.19850
C180        C  0.12442755  0.34524584  0.89859471    -0.21280
C181        C  0.10722852  0.31493137  0.87151721    -0.09330
C182        C  0.06337737  0.31449821  0.86362450     0.29530
C183        C  0.03749603  0.34545513  0.88162752    -0.21280
C184        C  0.05581188  0.37748756  0.90584598    -0.09340
C185        C  0.09926135  0.37691768  0.91452473     0.29540
F186        F  0.11726033  0.40697687  0.93897844    -0.19860
H187        H  0.15823120  0.34619589  0.90483964     0.17900
H188        H  0.00351743  0.34453516  0.87676971     0.17910
F189        F  0.04614983  0.28586562  0.83700310    -0.19850
C190        C  0.14169983  0.07735370  0.94615280    -0.21280
C191        C  0.11298018  0.05036554  0.92574756    -0.09330
C192        C  0.12045766  0.04130137  0.88178123     0.29530
C193        C  0.15299537  0.06164065  0.85832895    -0.21280
C194        C  0.17906863  0.09150750  0.87770529    -0.09340
C195        C  0.17412252  0.09801017  0.92237964     0.29540
F196        F  0.19805090  0.12732393  0.94211388    -0.19860
H197        H  0.13698736  0.08524306  0.97965164     0.17900
H198        H  0.15530958  0.05687431  0.82375837     0.17910
F199        F  0.09432392  0.01518220  0.86024204    -0.19850
C200        C  0.43524603  0.18573945  0.87510153    -0.21280
C201        C  0.39155996  0.18565559  0.88325164    -0.09330
C202        C  0.37475911  0.15836881  0.91549167     0.29530
C203        C  0.39989597  0.12654816  0.93358829    -0.21280
C204        C  0.44232865  0.12318205  0.92132988    -0.09340
C205        C  0.46088196  0.15452250  0.89450557     0.29540
F206        F  0.50241951  0.15213776  0.88338846    -0.19860
H207        H  0.44849214  0.20648359  0.85011686     0.17900
H208        H  0.38574087  0.10324691  0.95550056     0.17910
F209        F  0.33269390  0.15883031  0.92485829    -0.19850
C210        C  0.34717251  0.35191320  0.91383918    -0.21280
C211        C  0.32163906  0.37539602  0.88414457    -0.09330
C212        C  0.32222583  0.41947591  0.88590616     0.29530
C213        C  0.35115823  0.43938260  0.91329296    -0.21280
C214        C  0.38058057  0.41585774  0.93910601    -0.09340
C215        C  0.37620282  0.37177079  0.94119484     0.29540
F216        F  0.40321365  0.34757792  0.96560152    -0.19860
H217        H  0.34742975  0.31779345  0.91300143     0.17900
H218        H  0.35328690  0.47345945  0.91104330     0.17910
F219        F  0.29904948  0.44331015  0.85723840    -0.19850
C220        C  0.18959552  0.43628217  0.39840038    -0.21280
C221        C  0.21894678  0.40420775  0.39075566    -0.09330
C222        C  0.25654005  0.40198817  0.41563709     0.29530
C223        C  0.26603125  0.43313978  0.44516076    -0.21280
C224        C  0.23794563  0.46670446  0.45082762    -0.09340
C225        C  0.19907352  0.46746097  0.42818553     0.29540
F226        F  0.17110049  0.99947434  0.43355135    -0.19860
H227        H  0.16091997  0.43895279  0.37915996     0.17900
H228        H  0.29594532  0.43189454  0.46242584     0.17910
F229        F  0.28526061  0.37073857  0.40964826    -0.19850
C230        C  0.23360863  0.07704064  0.45313404    -0.21280
C231        C  0.26141197  0.04263246  0.45517514    -0.09330
C232        C  0.30078640  0.04547116  0.43377637     0.29530
C233        C  0.31086396  0.08125448  0.40818435    -0.21280
C234        C  0.28166556  0.11438316  0.40372308    -0.09340
C235        C  0.24379907  0.11283111  0.42795255     0.29540
F236        F  0.21521169  0.14487045  0.42471256    -0.19860
H237        H  0.20341114  0.07553956  0.46974561     0.17900
H238        H  0.33971124  0.08153348  0.38918525     0.17910
F239        F  0.32859904  0.01273655  0.43603472    -0.19850
C240        C  0.23707362  0.42402714  0.54582792    -0.21280
C241        C  0.26277048  0.45990796  0.54525264    -0.09330
C242        C  0.30121896  0.45897539  0.56861587     0.29530
C243        C  0.31235849  0.42356286  0.59442400    -0.21280
C244        C  0.28515352  0.38885561  0.59728889    -0.09340
C245        C  0.24829383  0.38864859  0.57139720     0.29540
F246        F  0.22141941  0.35528909  0.57352434    -0.19860
H247        H  0.20748177  0.42409746  0.52799649     0.17900
H248        H  0.34022988  0.42473767  0.61489795     0.17910
F249        F  0.32697190  0.49319419  0.56811070    -0.19850
C250        C  0.26392508  0.07060842  0.55268993    -0.21280
C251        C  0.23731994  0.03567690  0.54899003    -0.09330
C252        C  0.19886760  0.03441378  0.57221499     0.29530
C253        C  0.18835571  0.06661413  0.60051707    -0.21280
C254        C  0.21618877  0.10031381  0.60598847    -0.09340
C255        C  0.25332327  0.10281458  0.58062160     0.29540
F256        F  0.28077595  0.13530942  0.58498916    -0.19860
H257        H  0.29355612  0.07225667  0.53505467     0.17900
H258        H  0.16023157  0.06358723  0.62044347     0.17910
F259        F  0.17232649  0.00107166  0.56880088    -0.19850
C260        C  0.46878970  0.25893132  0.40577172    -0.21280
C261        C  0.46543975  0.26659893  0.45042973    -0.09330
C262        C  0.43150832  0.29277779  0.46363171     0.29530
C263        C  0.40016416  0.30661311  0.43346179    -0.21280
C264        C  0.40393936  0.29730573  0.38934078    -0.09340
C265        C  0.43995217  0.27529947  0.37585977     0.29540
F266        F  0.44556665  0.26641029  0.33340333    -0.19860
H267        H  0.49406861  0.23999451  0.39294219     0.17900
H268        H  0.37240033  0.32312235  0.44476949     0.17910
F269        F  0.42822625  0.30479641  0.50531005    -0.19850
C270        C  0.08570501  0.19601296  0.41450352    -0.21280
C271        C  0.10920031  0.23074978  0.39906727    -0.09330
C272        C  0.10184299  0.27063057  0.41684164     0.29530
C273        C  0.06822140  0.27668251  0.44509223    -0.21280
C274        C  0.04230429  0.24287197  0.45740464    -0.09340
C275        C  0.05244657  0.20199117  0.44389339     0.29540
F276        F  0.02779355  0.16873044  0.45610317    -0.19860
H277        H  0.09091333  0.16510889  0.40146554     0.17900
H278        H  0.06114065  0.30813108  0.45586097     0.17910
F279        F  0.12571106  0.30452819  0.40499327    -0.19850
C280        C  0.42899738  0.21459449  0.53623955    -0.21280
C281        C  0.46663750  0.23223448  0.55302381    -0.09330
C282        C  0.47217609  0.22918191  0.59883661     0.29530
C283        C  0.44073272  0.21260458  0.62573101    -0.21280
C284        C  0.40171231  0.20020315  0.60921827    -0.09340
C285        C  0.39626867  0.20012329  0.56403603     0.29540
F286        F  0.35854657  0.18864249  0.54689074    -0.19860
H287        H  0.42385385  0.21320278  0.50169995     0.17900
H288        H  0.44546098  0.21338029  0.66055419     0.17910
F289        F  0.50721065  0.24330615  0.61923214    -0.19850
C290        C  0.08173476  0.31155150  0.58932446    -0.21280
C291        C  0.11129682  0.27961191  0.59925183    -0.09330
C292        C  0.10859377  0.24101533  0.57791620     0.29530
C293        C  0.07381375  0.23238509  0.55194766    -0.21280
C294        C  0.04206468  0.26273869  0.54526251    -0.09340
C295        C  0.04730664  0.30327008  0.56198775     0.29540
F296        F  0.01708725  0.33329294  0.55517645    -0.19860
H297        H  0.08313590  0.34129614  0.60560076     0.17900
H298        H  0.07050517  0.20126191  0.53884609     0.17910
F299        F  0.13788936  0.21015392  0.58520865    -0.19850
C300        C  0.50149247  0.75077580  0.52409029     0.00590
C301        C  0.00132488  0.75128312  0.47972518     0.00580
C302        C  0.24944115  0.99944314  0.52206046     0.00590
C303        C  0.24946273  0.50272984  0.47814423     0.00580
C304        C  0.13714297  0.78052889  0.63895892     0.42480
N305        N  0.16446733  0.75588810  0.69773383     0.01370
C306        C  0.33226779  0.82703888  0.81968001    -0.06510
H307        H  0.35234907  0.82812619  0.64401601     0.06860
C308        C  0.34121999  0.67055236  0.66341527    -0.06860
Co309      Co  0.22346369  0.81466761  0.74285474     0.74180
N310        N  0.30288072  0.81693075  0.69193372    -0.26040
Co311      Co  0.32310834  0.77293432  0.74067746     0.74070
C312        C  0.36556998  0.70330556  0.63918935     0.42580
N313        N  0.23829935  0.65371356  0.70197853     0.00980
N314        N  0.33668383  0.72998182  0.69494972     0.01090
N315        N  0.26723981  0.85672943  0.82460953    -0.46880
H316        H  0.16870652  0.84548200  0.64741680     0.06850
N317        N  0.26402003  0.83180963  0.69449528     0.01380
N318        N  0.34061254  0.72894074  0.78983180     0.01120
C319        C  0.36276671  0.70010344  0.84908405     0.42720
N320        N  0.19932881  0.66873302  0.69959681    -0.25490
C321        C  0.16914854  0.81984475  0.82103244    -0.06410
N322        N  0.13974084  0.74633487  0.66522970    -0.46600
N323        N  0.36683555  0.73473018  0.82281484    -0.46820
C324        C  0.13729294  0.79482191  0.84278696     0.42490
N325        N  0.26979622  0.83199295  0.79026889     0.01360
N326        N  0.19754895  0.67185769  0.79503791    -0.25510
N327        N  0.17899317  0.79490232  0.69547909    -0.26010
N328        N  0.23509061  0.65350337  0.79667581     0.01000
H329        H  0.13996536  0.66410279  0.83152352     0.06890
H330        H  0.32402508  0.64013127  0.83896072     0.06930
N331        N  0.30769190  0.81480221  0.78729696    -0.26060
N332        N  0.32357368  0.69051558  0.69728125    -0.25670
N333        N  0.16347064  0.75904512  0.79162508     0.01370
C334        C  0.28671762  0.86034498  0.63565446     0.42760
C335        C  0.18077233  0.65167160  0.66455467    -0.06920
N336        N  0.32186134  0.69185003  0.79265517    -0.25670
H337        H  0.33717120  0.63765601  0.65623672     0.06910
N338        N  0.25327147  0.85742056  0.66204317    -0.46890
H339        H  0.14890204  0.65794555  0.65318108     0.06900
C340        C  0.19868755  0.62474056  0.84926333     0.42600
C341        C  0.16246655  0.81365665  0.65914685    -0.06420
Co342      Co  0.18006886  0.71354426  0.74603285     0.73820
N343        N  0.24826262  0.62828734  0.67072876    -0.46610
C344        C  0.30578223  0.85412857  0.84486719     0.42870
N345        N  0.13411223  0.75749831  0.82258169    -0.46600
Co346      Co  0.28043213  0.67123085  0.74753953     0.73890
C347        C  0.33384117  0.67151842  0.82875187    -0.06930
C348        C  0.32065135  0.83415899  0.65561311    -0.06490
N349        N  0.18299410  0.79574182  0.79001979    -0.26020
N350        N  0.36144470  0.73854027  0.66165395    -0.46780
H351        H  0.36484666  0.81770069  0.82519257     0.06870
C352        C  0.17298384  0.65628833  0.82673706    -0.06900
Cl353      Cl  0.25168599  0.74299258  0.74439849    -0.49900
C354        C  0.21417265  0.62536511  0.64534033     0.42630
H355        H  0.17802489  0.85237604  0.82531327     0.06840
N356        N  0.23666040  0.62352390  0.82807895    -0.46610
C357        C  0.13544565  0.72853557  0.35961323     0.42480
N358        N  0.16352337  0.75071542  0.30029639     0.01370
C359        C  0.33070936  0.67204749  0.18223056    -0.06510
H360        H  0.35010524  0.67280500  0.35668035     0.06830
C361        C  0.34407072  0.83053038  0.33488722    -0.06860
Co362      Co  0.22152618  0.68907243  0.25757273     0.74180
N363        N  0.30064205  0.68545763  0.30888444    -0.26040
Co364      Co  0.32220911  0.72795807  0.25953215     0.74070
C365        C  0.36715564  0.79675603  0.35959137     0.42580
N366        N  0.24039874  0.85018586  0.29477285     0.00980
N367        N  0.33621751  0.77092716  0.30456759     0.01090
N368        N  0.26550454  0.64291829  0.17809742    -0.46880
H369        H  0.16571436  0.66249463  0.35327003     0.06850
N370        N  0.26132241  0.67203372  0.30664747     0.01380
N371        N  0.34176625  0.77047990  0.21001417     0.01120
C372        C  0.36752134  0.79849748  0.15206169     0.42720
N373        N  0.20099926  0.83649979  0.29674962    -0.25490
C374        C  0.16855422  0.68347117  0.17845634    -0.06410
N375        N  0.13884746  0.76187538  0.33227289    -0.46600
N376        N  0.36956511  0.76385730  0.17863076    -0.46820
C377        C  0.13822469  0.70902524  0.15484851     0.42490
N378        N  0.26797687  0.66918106  0.21119786     0.01360
N379        N  0.19996940  0.83104040  0.20147363    -0.25510
N380        N  0.17721582  0.71138701  0.30385538    -0.26010
N381        N  0.23789333  0.84842920  0.19985737     0.01000
H382        H  0.14343561  0.83762150  0.16284787     0.06890
H383        H  0.32985546  0.85972063  0.16007057     0.06930
N384        N  0.30606268  0.68583449  0.21379168    -0.26060
N385        N  0.32503112  0.81098923  0.30140939    -0.25670
N386        N  0.16345901  0.74511187  0.20628827     0.01370
C387        C  0.28346283  0.64341528  0.36580104     0.42760
C388        C  0.18262634  0.85460182  0.33129719    -0.06920
N389        N  0.32401293  0.80808637  0.20609738    -0.25670
H390        H  0.34189324  0.86377028  0.34137690     0.06910
N391        N  0.24998298  0.64723199  0.33942167    -0.46890
H392        H  0.15046890  0.84967358  0.34212017     0.06900
C393        C  0.20299121  0.87508218  0.14499389     0.42600
C394        C  0.16019181  0.69416599  0.34058612    -0.06420
Co395      Co  0.18081196  0.79125844  0.25109834     0.73820
N396        N  0.25081388  0.87546015  0.32601290    -0.46610
C397        C  0.30416958  0.64433655  0.15811198     0.42870
N398        N  0.13524337  0.74691678  0.17409771    -0.46600
Co399      Co  0.28254812  0.83062785  0.25014896     0.73890
C400        C  0.33808936  0.82790149  0.17060111    -0.06930
C401        C  0.31809357  0.66798587  0.34534886    -0.06490
N402        N  0.18198541  0.70784442  0.20939996    -0.26020
N403        N  0.36042073  0.76147668  0.33804446    -0.46780
H404        H  0.36352353  0.68035885  0.17691810     0.06870
C405        C  0.17630459  0.84540385  0.16840925    -0.06900
Cl406      Cl  0.25170833  0.75976094  0.25445926    -0.49900
C407        C  0.21658667  0.87976811  0.35091648     0.42630
H408        H  0.17707502  0.65069147  0.17492606     0.06840
N409        N  0.24073014  0.87652428  0.16673085    -0.46610
O410        O  0.02593934  0.89161521  0.97116280    -0.80120
O411        O  0.02903647  0.60669760  0.02721549    -0.80140
O412        O  0.04130223  0.52671440  0.92318627    -0.80150
O413        O  0.05057399  0.97295307  0.07391195    -0.80090
O414        O  0.06622607  0.54140936  0.98779117    -0.80210
O415        O  0.06696870  0.95659821  0.00676895    -0.80130
O416        O  0.02509847  0.55820777  0.08075103    -0.80120
O417        O  0.01774316  0.94160914  0.91945851    -0.80150
C418        C  0.03030931  0.90427241  0.93259953     1.09570
C419        C  0.03598253  0.59538223  0.06577527     1.09460
C420        C  0.07203266  0.53753535  0.94725731     1.09600
C421        C  0.07767027  0.96098246  0.04617172     1.09470
O422        O  0.50620863  0.90857777  0.04764790    -0.80120
O423        O  0.50050943  0.58947695  0.95411778    -0.80190
O424        O  0.43011004  0.97056280  0.93329006    -0.80130
O425        O  0.43775390  0.52738642  0.07614172    -0.80110
O426        O  0.44903662  0.57673827  0.02693813    -0.80160
O427        O  0.44705618  0.92073342  0.98025821    -0.80130
O428        O  0.45923539  0.94836756  0.07576347    -0.80090
O429        O  0.45010304  0.54989009  0.93283375    -0.80160
Co430      Co  0.00731009  0.94172365  0.99267046     1.51530
Co431      Co  0.00823510  0.55628149  0.00850019     1.51690
Co432      Co  0.98507228  0.99788838  0.93334133     1.51570
Co433      Co  0.99293706  0.50093200  0.07050087     1.51470
O434        O  0.98729790  0.49903398  0.00197727    -1.42050
C435        C  0.47407951  0.91226459  0.07034789     1.09500
C436        C  0.46588905  0.58587659  0.93549441     1.09590
C437        C  0.42071621  0.93686345  0.95302178     1.09530
C438        C  0.42542172  0.56025465  0.05642136     1.09500
C439        C  0.13666304  0.90783475  0.04885033    -0.21280
C440        C  0.12015143  0.94648045  0.06238550    -0.09330
C441        C  0.13965398  0.96568193  0.09794481     0.29530
C442        C  0.17215247  0.94480577  0.12159968    -0.21280
C443        C  0.18550736  0.90419248  0.11065427    -0.09340
C444        C  0.16855056  0.88669300  0.07291741     0.29540
F445        F  0.17945928  0.84691898  0.06209636    -0.19860
H446        H  0.12179823  0.89173881  0.02238377     0.17900
H447        H  0.18367603  0.95850356  0.15110994     0.17910
F448        F  0.12497843  0.00317025  0.11192859    -0.19850
C449        C  0.12789276  0.65923145  0.09794175    -0.21280
C450        C  0.10938330  0.68928640  0.12458504    -0.09330
C451        C  0.06546588  0.68853499  0.13180860     0.29530
C452        C  0.04098199  0.65636030  0.11424249    -0.21280
C453        C  0.06068028  0.62437314  0.09092969    -0.09340
C454        C  0.10405131  0.62644539  0.08228475     0.29540
F455        F  0.12338121  0.59637454  0.05886140    -0.19860
H456        H  0.16182008  0.65907543  0.09240010     0.17900
H457        H  0.00698877  0.65613160  0.11902829     0.17910
F458        F  0.04693919  0.71696738  0.15783542    -0.19850
C459        C  0.36003890  0.55654304  0.10288282    -0.21280
C460        C  0.38469402  0.57939644  0.07185619    -0.09330
C461        C  0.37375229  0.62177600  0.06293266     0.29530
C462        C  0.34240490  0.64156377  0.08774808    -0.21280
C463        C  0.32107816  0.61965553  0.12171154    -0.09340
C464        C  0.32900710  0.57641239  0.12778570     0.29540
F465        F  0.31091325  0.55462185  0.16146217    -0.19860
H466        H  0.36716562  0.52374736  0.11063905     0.17900
H467        H  0.33754141  0.67521649  0.08309084     0.17910
F468        F  0.39602930  0.64526034  0.03346491    -0.19850
C469        C  0.40928309  0.87046521  0.06890649    -0.21280
C470        C  0.45059869  0.87500627  0.08434347    -0.09330
C471        C  0.46780620  0.84495327  0.11373112     0.29530
C472        C  0.44154329  0.81373059  0.13195563    -0.21280
C473        C  0.39863888  0.81249392  0.12006181    -0.09340
C474        C  0.38366023  0.83867263  0.08585908     0.29540
F475        F  0.34239484  0.83734626  0.07332003    -0.19860
H476        H  0.39609689  0.89296105  0.04539992     0.17900
H477        H  0.45332681  0.79399669  0.15863309     0.17910
F478        F  0.50831228  0.84852779  0.12802255    -0.19850
C479        C  0.12442638  0.84524340  0.89859319    -0.21280
C480        C  0.10722710  0.81492963  0.87151501    -0.09330
C481        C  0.06337603  0.81449747  0.86362174     0.29530
C482        C  0.03749505  0.84545467  0.88162491    -0.21280
C483        C  0.05581122  0.87748639  0.90584413    -0.09340
C484        C  0.09926060  0.87691548  0.91452341     0.29540
F485        F  0.11725992  0.90697397  0.93897775    -0.19860
H486        H  0.15823000  0.84619276  0.90483846     0.17900
H487        H  0.00351649  0.84453544  0.87676661     0.17910
F488        F  0.04614827  0.78586563  0.83699964    -0.19850
C489        C  0.14169985  0.57735512  0.94615415    -0.21280
C490        C  0.11298079  0.55036591  0.92574952    -0.09330
C491        C  0.12045894  0.54130037  0.88178365     0.29530
C492        C  0.15299671  0.56163928  0.85833108    -0.21280
C493        C  0.17906940  0.59150711  0.87770667    -0.09340
C494        C  0.17412261  0.59801118  0.92238070     0.29540
F495        F  0.19805037  0.62732591  0.94211421    -0.19860
H496        H  0.13698681  0.58524561  0.97965261     0.17900
H497        H  0.15531139  0.55687183  0.82376073     0.17910
F498        F  0.09432579  0.51518010  0.86024513    -0.19850
C499        C  0.43524655  0.68574011  0.87510285    -0.21280
C500        C  0.39156052  0.68565645  0.88325319    -0.09330
C501        C  0.37475973  0.65836990  0.91549346     0.29530
C502        C  0.39989654  0.62654918  0.93359003    -0.21280
C503        C  0.44232915  0.62318284  0.92133141    -0.09340
C504        C  0.46088245  0.65452313  0.89450689     0.29540
F505        F  0.50241993  0.65213815  0.88338955    -0.19860
H506        H  0.44849261  0.70648405  0.85011799     0.17900
H507        H  0.38574144  0.60324804  0.95550240     0.17910
F508        F  0.33269457  0.65883161  0.92486027    -0.19850
C509        C  0.34717069  0.85191302  0.91383935    -0.21280
C510        C  0.32163750  0.87539578  0.88414443    -0.09330
C511        C  0.32222494  0.91947569  0.88590532     0.29530
C512        C  0.35115772  0.93938237  0.91329171    -0.21280
C513        C  0.38057986  0.91585745  0.93910497    -0.09340
C514        C  0.37620148  0.87177059  0.94119450     0.29540
F515        F  0.40321215  0.84757766  0.96560130    -0.19860
H516        H  0.34742748  0.81779324  0.91300207     0.17900
H517        H  0.35328684  0.97345917  0.91104153     0.17910
F518        F  0.29904894  0.94330985  0.85723718    -0.19850
C519        C  0.18959503  0.93627804  0.39840519    -0.21280
C520        C  0.21895010  0.90420812  0.39075618    -0.09330
C521        C  0.25654523  0.90199198  0.41563496     0.29530
C522        C  0.26603427  0.93314307  0.44515988    -0.21280
C523        C  0.23794479  0.96670375  0.45083055    -0.09340
C524        C  0.19907097  0.96745636  0.42819156     0.29540
F525        F  0.17110679  0.49948295  0.43354123    -0.19860
H526        H  0.16091767  0.93894576  0.37916729     0.17900
H527        H  0.29594945  0.93190066  0.46242307     0.17910
F528        F  0.28526918  0.87074618  0.40964282    -0.19850
C529        C  0.23361401  0.57704246  0.45313489    -0.21280
C530        C  0.26141545  0.54263265  0.45517289    -0.09330
C531        C  0.30078862  0.54546984  0.43377154     0.29530
C532        C  0.31086669  0.58125352  0.40818030    -0.21280
C533        C  0.28166999  0.61438401  0.40372224    -0.09340
C534        C  0.24380491  0.61283320  0.42795400     0.29540
F535        F  0.21521899  0.64487401  0.42471654    -0.19860
H536        H  0.20341740  0.57554246  0.46974821     0.17900
H537        H  0.33971269  0.58153150  0.38917917     0.17910
F538        F  0.32859932  0.51273347  0.43602656    -0.19850
C539        C  0.23707645  0.92402506  0.54582674    -0.21280
C540        C  0.26276846  0.95990936  0.54525635    -0.09330
C541        C  0.30121414  0.95898068  0.56862452     0.29530
C542        C  0.31235570  0.92356809  0.59443159    -0.21280
C543        C  0.28515565  0.88885673  0.59729070    -0.09340
C544        C  0.24829876  0.88864647  0.57139507     0.29540
F545        F  0.22142858  0.85528340  0.57351752    -0.19860
H546        H  0.20748645  0.92409242  0.52799220     0.17900
H547        H  0.34022443  0.92474556  0.61490910     0.17910
F548        F  0.32696230  0.99320295  0.56812492    -0.19850
C549        C  0.26393091  0.57060589  0.55269043    -0.21280
C550        C  0.23732436  0.53567579  0.54898820    -0.09330
C551        C  0.19887118  0.53441351  0.57221176     0.29530
C552        C  0.18835968  0.56661327  0.60051470    -0.21280
C553        C  0.21619398  0.60031151  0.60598839    -0.09340
C554        C  0.25332952  0.60281149  0.58062297     0.29540
F555        F  0.28078321  0.63530519  0.58499235    -0.19860
H556        H  0.29356248  0.57225354  0.53505603     0.17900
H557        H  0.16023462  0.56358700  0.62043979     0.17910
F558        F  0.17232867  0.50107279  0.56879535    -0.19850
C559        C  0.46879046  0.75893113  0.40577096    -0.21280
C560        C  0.46544013  0.76659887  0.45042891    -0.09330
C561        C  0.43150883  0.79277809  0.46363047     0.29530
C562        C  0.40016528  0.80661392  0.43346009    -0.21280
C563        C  0.40394104  0.79730669  0.38933908    -0.09340
C564        C  0.43995371  0.77529989  0.37585859     0.29540
F565        F  0.44556870  0.76641074  0.33340221    -0.19860
H566        H  0.49406920  0.73999388  0.39294177     0.17900
H567        H  0.37240148  0.82312347  0.44476740     0.17910
F568        F  0.42822636  0.80479666  0.50530879    -0.19850
C569        C  0.08570675  0.69601392  0.41450403    -0.21280
C570        C  0.10920186  0.73075101  0.39906813    -0.09330
C571        C  0.10184367  0.77063178  0.41684217     0.29530
C572        C  0.06822151  0.77668335  0.44509212    -0.21280
C573        C  0.04230469  0.74287250  0.45740420    -0.09340
C574        C  0.05244773  0.70199178  0.44389327     0.29540
F575        F  0.02779500  0.66873076  0.45610281    -0.19860
H576        H  0.09091572  0.66510986  0.40146625     0.17900
H577        H  0.06114017  0.80813186  0.45586068     0.17910
F578        F  0.12571144  0.80452968  0.40499408    -0.19850
C579        C  0.42899759  0.71459478  0.53623957    -0.21280
C580        C  0.46663766  0.73223517  0.55302349    -0.09330
C581        C  0.47217635  0.72918329  0.59883633     0.29530
C582        C  0.44073350  0.71260544  0.62573099    -0.21280
C583        C  0.40171324  0.70020322  0.60921861    -0.09340
C584        C  0.39626924  0.70012328  0.56403638     0.29540
F585        F  0.35854715  0.68864199  0.54689143    -0.19860
H586        H  0.42385390  0.71320293  0.50170000     0.17900
H587        H  0.44546196  0.71338146  0.66055412     0.17910
F588        F  0.50721045  0.74330884  0.61923168    -0.19850
C589        C  0.08173803  0.81154945  0.58932218    -0.21280
C590        C  0.11129852  0.77960861  0.59925031    -0.09330
C591        C  0.10859351  0.74101161  0.57791570     0.29530
C592        C  0.07381294  0.73238241  0.55194758    -0.21280
C593        C  0.04206538  0.76273742  0.54526177    -0.09340
C594        C  0.04730941  0.80326903  0.56198581     0.29540
F595        F  0.01709152  0.83329323  0.55517367    -0.19860
H596        H  0.08314076  0.84129449  0.60559759     0.17900
H597        H  0.07050280  0.70125909  0.53884673     0.17910
F598        F  0.13788772  0.71014900  0.58520862    -0.19850
C599        C  0.00149227  0.25077567  0.52409086     0.00590
C600        C  0.50132465  0.25128307  0.47972576     0.00580
C601        C  0.74944491  0.49944260  0.52205763     0.00590
C602        C  0.74945993  0.00272975  0.47814699     0.00580
C603        C  0.63714064  0.28053222  0.63896091     0.42480
N604        N  0.66446572  0.25589085  0.69773524     0.01370
C605        C  0.83226855  0.32703922  0.81967973    -0.06510
H606        H  0.85234719  0.32812537  0.64401411     0.06860
C607        C  0.84121808  0.17055318  0.66341415    -0.06860
Co608      Co  0.72346354  0.31466944  0.74285556     0.74180
N609        N  0.80287991  0.31693170  0.69193337    -0.26040
Co610      Co  0.82310777  0.27293505  0.74067682     0.74070
C611        C  0.86556881  0.20330605  0.63918859     0.42580
N612        N  0.73829685  0.15371574  0.70197794     0.00980
N613        N  0.83668254  0.22998264  0.69494873     0.01090
N614        N  0.76724095  0.35673043  0.82460991    -0.46880
H615        H  0.66870503  0.34548496  0.64741867     0.06850
N616        N  0.76401949  0.33181116  0.69449560     0.01380
N617        N  0.84061198  0.22894103  0.78983074     0.01120
C618        C  0.86276630  0.20010305  0.84908259     0.42720
N619        N  0.69932640  0.16873552  0.69959708    -0.25490
C620        C  0.66914979  0.31984638  0.82103443    -0.06410
N621        N  0.63973861  0.24633804  0.66523145    -0.46600
N622        N  0.86683524  0.23472999  0.82281367    -0.46820
C623        C  0.63729436  0.29482355  0.84278931     0.42490
N624        N  0.76979682  0.33199408  0.79026913     0.01360
N625        N  0.69754808  0.17185946  0.79503815    -0.25510
N626        N  0.67899200  0.29490491  0.69548046    -0.26010
N627        N  0.73508952  0.15350469  0.79667520     0.01000
H628        H  0.63996493  0.16410464  0.83152448     0.06890
H629        H  0.82402407  0.14013131  0.83895900     0.06930
N630        N  0.80769227  0.31480294  0.78729677    -0.26060
N631        N  0.82357187  0.19051657  0.69728006    -0.25670
N632        N  0.66347078  0.25904716  0.79162650     0.01370
C633        C  0.78671615  0.36034521  0.63565372     0.42760
C634        C  0.68076899  0.15167438  0.66455531    -0.06920
N635        N  0.82186049  0.19185044  0.79265390    -0.25670
H636        H  0.83716898  0.13765687  0.65623558     0.06910
N637        N  0.75327057  0.35742169  0.66204329    -0.46890
H638        H  0.64889851  0.15794862  0.65318244     0.06900
C639        C  0.69868695  0.12474156  0.84926287     0.42600
C640        C  0.66246495  0.31365961  0.65914859    -0.06420
Co641      Co  0.68006769  0.21354656  0.74603370     0.73820
N642        N  0.74825921  0.12828948  0.67072792    -0.46610
C643        C  0.80578347  0.35412911  0.84486726     0.42870
N644        N  0.63411295  0.25750025  0.82258364    -0.46600
Co645      Co  0.78043053  0.17123209  0.74753854     0.73890
C646        C  0.83384041  0.17151842  0.82875033    -0.06930
C647        C  0.82064995  0.33415908  0.65561204    -0.06490
N648        N  0.68299452  0.29574371  0.79002119    -0.26020
N649        N  0.86144384  0.23854079  0.66165322    -0.46780
H650        H  0.86484736  0.31770064  0.82519202     0.06870
C651        C  0.67298328  0.15628997  0.82673748    -0.06900
Cl652      Cl  0.75168513  0.24299412  0.74439845    -0.49900
C653        C  0.71416863  0.12536762  0.64534028     0.42630
H654        H  0.67802649  0.35237755  0.82531542     0.06840
N655        N  0.73665941  0.12352475  0.82807783    -0.46610
C656        C  0.63544343  0.22853415  0.35961189     0.42480
N657        N  0.66352154  0.25071416  0.30029528     0.01370
C658        C  0.83070950  0.17204713  0.18223142    -0.06510
H659        H  0.85010200  0.17280400  0.35668259     0.06830
C660        C  0.84406861  0.33052911  0.33488942    -0.06860
Co661      Co  0.72152510  0.18907145  0.25757202     0.74180
N662        N  0.80064004  0.18545635  0.30888525    -0.26040
Co663      Co  0.82220803  0.22795711  0.25953356     0.74070
C664        C  0.86715351  0.29675479  0.35959364     0.42580
N665        N  0.74039694  0.35018455  0.29477358     0.00980
N666        N  0.83621568  0.27092593  0.30456962     0.01090
N667        N  0.76550474  0.14291801  0.17809701    -0.46880
H668        H  0.66571213  0.16249322  0.35326862     0.06850
N669        N  0.76132050  0.17203233  0.30664729     0.01380
N670        N  0.84176603  0.27047937  0.21001620     0.01120
C671        C  0.86752212  0.29849769  0.15206454     0.42720
N672        N  0.70099738  0.33649863  0.29674956    -0.25490
C673        C  0.66855429  0.18347070  0.17845473    -0.06410
N674        N  0.63884545  0.26187404  0.33227169    -0.46600
N675        N  0.86956551  0.26385718  0.17863322    -0.46820
C676        C  0.63822484  0.20902480  0.15484681     0.42490
N677        N  0.76797658  0.16918046  0.21119776     0.01360
N678        N  0.69996909  0.33103964  0.20147365    -0.25510
N679        N  0.67721398  0.21138573  0.30385422    -0.26010
N680        N  0.73789300  0.34842853  0.19985818     0.01000
H681        H  0.64343579  0.33762116  0.16284724     0.06890
H682        H  0.82985590  0.35972061  0.16007337     0.06930
N683        N  0.80606236  0.18583384  0.21379237    -0.26060
N684        N  0.82502930  0.31098801  0.30141141    -0.25670
N685        N  0.66345858  0.24511115  0.20628711     0.01370
C686        C  0.78345951  0.14341393  0.36580148     0.42760
C687        C  0.68262377  0.35460101  0.33129657    -0.06920
N688        N  0.82401267  0.30808582  0.20609944    -0.25670
H689        H  0.84189102  0.36376900  0.34137916     0.06910
N690        N  0.74998034  0.14723057  0.33942119    -0.46890
H691        H  0.65046603  0.34967310  0.34211879     0.06900
C692        C  0.70299156  0.37508211  0.14499455     0.42600
C693        C  0.66018967  0.19416461  0.34058477    -0.06420
Co694      Co  0.68081086  0.29125744  0.25109775     0.73820
N695        N  0.75081151  0.37545907  0.32601360    -0.46610
C696        C  0.80417005  0.14433641  0.15811214     0.42870
N697        N  0.63524320  0.24691617  0.17409632    -0.46600
Co698      Co  0.78254704  0.33062686  0.25015040     0.73890
C699        C  0.83808972  0.32790139  0.17060371    -0.06930
C700        C  0.81809068  0.16798466  0.34535018    -0.06490
N701        N  0.68198508  0.20784375  0.20939871    -0.26020
N702        N  0.86041874  0.26147545  0.33804664    -0.46780
H703        H  0.86352373  0.18035856  0.17691950     0.06870
C704        C  0.67630471  0.34540342  0.16840911    -0.06900
Cl705      Cl  0.75170725  0.25975995  0.25445965    -0.49900
C706        C  0.71658378  0.37976739  0.35091629     0.42630
H707        H  0.67707515  0.15069103  0.17492436     0.06840
N708        N  0.74073017  0.37652407  0.16673211    -0.46610
O709        O  0.52593968  0.39161588  0.97116454    -0.80120
O710        O  0.52903649  0.10669700  0.02721379    -0.80140
O711        O  0.54130182  0.02671368  0.92318452    -0.80150
O712        O  0.55057403  0.47295369  0.07391379    -0.80090
O713        O  0.56622578  0.04140867  0.98778937    -0.80210
O714        O  0.56696889  0.45659890  0.00677082    -0.80130
O715        O  0.52509866  0.05820719  0.08074935    -0.80120
O716        O  0.51774361  0.44161000  0.91946039    -0.80150
C717        C  0.53030976  0.40427327  0.93260135     1.09570
C718        C  0.53598270  0.09538164  0.06577355     1.09460
C719        C  0.57203226  0.03753473  0.94725548     1.09600
C720        C  0.57767039  0.46098316  0.04617361     1.09470
O721        O  0.00620877  0.40857827  0.04764958    -0.80120
O722        O  0.00050903  0.08947631  0.95411620    -0.80190
O723        O  0.93011037  0.47056348  0.93329165    -0.80130
O724        O  0.93775400  0.02738597  0.07614042    -0.80110
O725        O  0.94903656  0.07673786  0.02693688    -0.80160
O726        O  0.94705654  0.42073399  0.98025970    -0.80130
O727        O  0.95923542  0.44836800  0.07576504    -0.80090
O728        O  0.95010268  0.04988936  0.93283217    -0.80160
Co729      Co  0.50731036  0.44172426  0.99267219     1.51530
Co730      Co  0.50823493  0.05628090  0.00849859     1.51690
Co731      Co  0.48507265  0.49788911  0.93334300     1.51570
Co732      Co  0.49293712  0.00093147  0.07049925     1.51470
O733        O  0.48729767  0.99903338  0.00197564    -1.42050
C734        C  0.97407966  0.41226505  0.07034961     1.09500
C735        C  0.96588862  0.08587589  0.93549288     1.09590
C736        C  0.92071663  0.43686400  0.95302319     1.09530
C737        C  0.92542182  0.06025432  0.05642029     1.09500
C738        C  0.63666382  0.40783613  0.04885130    -0.21280
C739        C  0.62015160  0.44648126  0.06238737    -0.09330
C740        C  0.63965374  0.46568217  0.09794725     0.29530
C741        C  0.67215238  0.44480589  0.12160179    -0.21280
C742        C  0.68550785  0.40419305  0.11065544    -0.09340
C743        C  0.66855151  0.38669426  0.07291803     0.29540
F744        F  0.67946078  0.34692064  0.06209607    -0.19860
H745        H  0.62179938  0.39174062  0.02238424     0.17900
H746        H  0.68367559  0.45850312  0.15111248     0.17910
F747        F  0.62497768  0.50316998  0.11193187    -0.19850
C748        C  0.62789290  0.15923103  0.09793999    -0.21280
C749        C  0.60938343  0.18928590  0.12458337    -0.09330
C750        C  0.56546602  0.18853437  0.13180701     0.29530
C751        C  0.54098216  0.15635967  0.11424086    -0.21280
C752        C  0.56068046  0.12437261  0.09092792    -0.09340
C753        C  0.60405147  0.12644497  0.08228292     0.29540
F754        F  0.62338140  0.09637421  0.05885950    -0.19860
H755        H  0.66182022  0.15907509  0.09239830     0.17900
H756        H  0.50698895  0.15613088  0.11902674     0.17910
F757        F  0.54693931  0.21696664  0.15783394    -0.19850
C758        C  0.86003955  0.05654299  0.10288263    -0.21280
C759        C  0.88469437  0.07939631  0.07185567    -0.09330
C760        C  0.87375268  0.12177591  0.06293233     0.29530
C761        C  0.84240564  0.14156378  0.08774818    -0.21280
C762        C  0.82107906  0.11965553  0.12171174    -0.09340
C763        C  0.82900804  0.07641238  0.12778583     0.29540
F764        F  0.81091444  0.05462183  0.16146245    -0.19860
H765        H  0.86716626  0.02374728  0.11063879     0.17900
H766        H  0.83754212  0.17521650  0.08309099     0.17910
F767        F  0.89602930  0.14526014  0.03346417    -0.19850
C768        C  0.90928345  0.37046526  0.06890873    -0.21280
C769        C  0.95059906  0.37500667  0.08434556    -0.09330
C770        C  0.96780675  0.34495402  0.11373350     0.29530
C771        C  0.94154402  0.31373135  0.13195837    -0.21280
C772        C  0.89863960  0.31249431  0.12006462    -0.09340
C773        C  0.88366075  0.33867273  0.08586174     0.29540
F774        F  0.84239533  0.33734610  0.07332283    -0.19860
H775        H  0.89609713  0.39296079  0.04540192     0.17900
H776        H  0.95332768  0.29399771  0.15863597     0.17910
F777        F  0.00831284  0.34852885  0.12802478    -0.19850
C778        C  0.62442757  0.34524590  0.89859468    -0.21280
C779        C  0.60722854  0.31493141  0.87151720    -0.09330
C780        C  0.56337739  0.31449822  0.86362450     0.29530
C781        C  0.53749604  0.34545514  0.88162752    -0.21280
C782        C  0.55581188  0.37748758  0.90584597    -0.09340
C783        C  0.59926136  0.37691773  0.91452470     0.29540
F784        F  0.61726033  0.40697693  0.93897840    -0.19860
H785        H  0.65823122  0.34619596  0.90483960     0.17900
H786        H  0.50351744  0.34453515  0.87676973     0.17910
F787        F  0.54614985  0.28586562  0.83700312    -0.19850
C788        C  0.64169985  0.07735376  0.94615284    -0.21280
C789        C  0.61298024  0.05036556  0.92574760    -0.09330
C790        C  0.62045775  0.04130137  0.88178128     0.29530
C791        C  0.65299546  0.06164066  0.85832901    -0.21280
C792        C  0.67906868  0.09150755  0.87770534    -0.09340
C793        C  0.67412254  0.09801023  0.92237968     0.29540
F794        F  0.69805089  0.12732402  0.94211392    -0.19860
H795        H  0.63698735  0.08524314  0.97965167     0.17900
H796        H  0.65530969  0.05687431  0.82375843     0.17910
F797        F  0.59432404  0.01518217  0.86024209    -0.19850
C798        C  0.93524607  0.18573950  0.87510153    -0.21280
C799        C  0.89156001  0.18565568  0.88325166    -0.09330
C800        C  0.87475914  0.15836893  0.91549171     0.29530
C801        C  0.89989598  0.12654826  0.93358833    -0.21280
C802        C  0.94232865  0.12318210  0.92132991    -0.09340
C803        C  0.96088198  0.15452253  0.89450558     0.29540
F804        F  0.00241952  0.15213774  0.88338845    -0.19860
H805        H  0.94849219  0.20648361  0.85011685     0.17900
H806        H  0.88574086  0.10324703  0.95550061     0.17910
F807        F  0.83269394  0.15883047  0.92485834    -0.19850
C808        C  0.84717250  0.35191323  0.91383916    -0.21280
C809        C  0.82163906  0.37539606  0.88414455    -0.09330
C810        C  0.82222583  0.41947594  0.88590616     0.29530
C811        C  0.85115823  0.43938262  0.91329296    -0.21280
C812        C  0.88058056  0.41585775  0.93910602    -0.09340
C813        C  0.87620281  0.37177081  0.94119484     0.29540
F814        F  0.90321364  0.34757792  0.96560151    -0.19860
H815        H  0.84742973  0.31779347  0.91300141     0.17900
H816        H  0.85328690  0.47345947  0.91104331     0.17910
F817        F  0.79904949  0.44331019  0.85723840    -0.19850
C818        C  0.68959551  0.43628222  0.39840035    -0.21280
C819        C  0.71894674  0.40420777  0.39075565    -0.09330
C820        C  0.75654001  0.40198817  0.41563710     0.29530
C821        C  0.76603121  0.43313978  0.44516076    -0.21280
C822        C  0.73794563  0.46670448  0.45082760    -0.09340
C823        C  0.69907352  0.46746102  0.42818549     0.29540
F824        F  0.67110051  0.99947435  0.43355135    -0.19860
H825        H  0.66091997  0.43895286  0.37915991     0.17900
H826        H  0.79594528  0.43189451  0.46242585     0.17910
F827        F  0.78526054  0.37073854  0.40964828    -0.19850
C828        C  0.73360865  0.07704065  0.45313408    -0.21280
C829        C  0.76141199  0.04263247  0.45517516    -0.09330
C830        C  0.80078641  0.04547118  0.43377639     0.29530
C831        C  0.81086397  0.08125451  0.40818438    -0.21280
C832        C  0.78166557  0.11438318  0.40372311    -0.09340
C833        C  0.74379908  0.11283113  0.42795259     0.29540
F834        F  0.71521170  0.14487047  0.42471260    -0.19860
H835        H  0.70341116  0.07553957  0.46974565     0.17900
H836        H  0.83971125  0.08153351  0.38918527     0.17910
F837        F  0.82859906  0.01273657  0.43603473    -0.19850
C838        C  0.73707359  0.42402717  0.54582791    -0.21280
C839        C  0.76277048  0.45990797  0.54525262    -0.09330
C840        C  0.80121898  0.45897538  0.56861581     0.29530
C841        C  0.81235850  0.42356284  0.59442394    -0.21280
C842        C  0.78515351  0.38885561  0.59728886    -0.09340
C843        C  0.74829380  0.38864861  0.57139719     0.29540
F844        F  0.72141936  0.35528913  0.57352435    -0.19860
H845        H  0.70748173  0.42409751  0.52799650     0.17900
H846        H  0.84022991  0.42473763  0.61489787     0.17910
F847        F  0.82697194  0.49319416  0.56811062    -0.19850
C848        C  0.76392512  0.07060840  0.55268996    -0.21280
C849        C  0.73731997  0.03567689  0.54899005    -0.09330
C850        C  0.69886763  0.03441378  0.57221501     0.29530
C851        C  0.68835575  0.06661413  0.60051710    -0.21280
C852        C  0.71618882  0.10031379  0.60598852    -0.09340
C853        C  0.75332332  0.10281456  0.58062165     0.29540
F854        F  0.78077601  0.13530939  0.58498922    -0.19860
H855        H  0.79355616  0.07225665  0.53505471     0.17900
H856        H  0.66023161  0.06358723  0.62044350     0.17910
F857        F  0.67232651  0.00107167  0.56880090    -0.19850
C858        C  0.96878972  0.25893139  0.40577170    -0.21280
C859        C  0.96543976  0.26659896  0.45042972    -0.09330
C860        C  0.93150833  0.29277781  0.46363172     0.29530
C861        C  0.90016417  0.30661314  0.43346181    -0.21280
C862        C  0.90393936  0.29730578  0.38934080    -0.09340
C863        C  0.93995218  0.27529955  0.37585977     0.29540
F864        F  0.94556666  0.26641039  0.33340331    -0.19860
H865        H  0.99406863  0.23999460  0.39294215     0.17900
H866        H  0.87240032  0.32312236  0.44476952     0.17910
F867        F  0.92822626  0.30479641  0.50531006    -0.19850
C868        C  0.58570503  0.19601298  0.41450355    -0.21280
C869        C  0.60920031  0.23074981  0.39906728    -0.09330
C870        C  0.60184297  0.27063061  0.41684163     0.29530
C871        C  0.56822137  0.27668253  0.44509223    -0.21280
C872        C  0.54230429  0.24287198  0.45740466    -0.09340
C873        C  0.55244659  0.20199118  0.44389343     0.29540
F874        F  0.52779361  0.16873044  0.45610323    -0.19860
H875        H  0.59091337  0.16510890  0.40146559     0.17900
H876        H  0.56114060  0.30813110  0.45586095     0.17910
F877        F  0.62571101  0.30452823  0.40499325    -0.19850
C878        C  0.92899738  0.21459451  0.53623954    -0.21280
C879        C  0.96663752  0.23223447  0.55302379    -0.09330
C880        C  0.97217613  0.22918186  0.59883660     0.29530
C881        C  0.94073275  0.21260455  0.62573100    -0.21280
C882        C  0.90171233  0.20020315  0.60921826    -0.09340
C883        C  0.89626867  0.20012331  0.56403602     0.29540
F884        F  0.85854656  0.18864254  0.54689074    -0.19860
H885        H  0.92385383  0.21320282  0.50169994     0.17900
H886        H  0.94546103  0.21338023  0.66055418     0.17910
F887        F  0.00721071  0.24330606  0.61923212    -0.19850
C888        C  0.58173480  0.31155147  0.58932444    -0.21280
C889        C  0.61129682  0.27961187  0.59925184    -0.09330
C890        C  0.60859374  0.24101526  0.57791625     0.29530
C891        C  0.57381371  0.23238504  0.55194770    -0.21280
C892        C  0.54206467  0.26273866  0.54526253    -0.09340
C893        C  0.54730667  0.30327006  0.56198774     0.29540
F894        F  0.51708731  0.33329294  0.55517641    -0.19860
H895        H  0.58313596  0.34129613  0.60560072     0.17900
H896        H  0.57050511  0.20126186  0.53884615     0.17910
F897        F  0.63788931  0.21015384  0.58520872    -0.19850
C898        C  0.00149248  0.75077582  0.52409030     0.00590
C899        C  0.50132487  0.75128312  0.47972516     0.00580
C900        C  0.74944117  0.99944314  0.52206048     0.00590
C901        C  0.74946274  0.50272985  0.47814421     0.00580
C902        C  0.63714295  0.78052889  0.63895892     0.42480
N903        N  0.66446731  0.75588808  0.69773383     0.01370
C904        C  0.83226776  0.82703887  0.81968003    -0.06510
H905        H  0.85234905  0.82812619  0.64401603     0.06860
C906        C  0.84121999  0.67055236  0.66341527    -0.06860
Co907      Co  0.72346367  0.81466759  0.74285475     0.74180
N908        N  0.80288070  0.81693075  0.69193373    -0.26040
Co909      Co  0.82310832  0.77293431  0.74067747     0.74070
C910        C  0.86556998  0.70330557  0.63918935     0.42580
N911        N  0.73829934  0.65371355  0.70197851     0.00980
N912        N  0.83668382  0.72998182  0.69494973     0.01090
N913        N  0.76723979  0.85672942  0.82460955    -0.46880
H914        H  0.66870649  0.84548199  0.64741682     0.06850
N915        N  0.76402001  0.83180962  0.69449530     0.01380
N916        N  0.84061251  0.72894073  0.78983181     0.01120
C917        C  0.86276669  0.70010342  0.84908406     0.42720
N918        N  0.69932880  0.66873301  0.69959679    -0.25490
C919        C  0.66914854  0.81984470  0.82103247    -0.06410
N920        N  0.63974082  0.74633486  0.66522970    -0.46600
N921        N  0.86683552  0.73473017  0.82281485    -0.46820
C922        C  0.63729295  0.79482184  0.84278699     0.42490
N923        N  0.76979620  0.83199293  0.79026890     0.01360
N924        N  0.69754894  0.67185766  0.79503789    -0.25510
N925        N  0.67899315  0.79490230  0.69547910    -0.26010
N926        N  0.73509060  0.65350334  0.79667579     0.01000
H927        H  0.63996534  0.66410275  0.83152349     0.06890
H928        H  0.82402506  0.64013125  0.83896071     0.06930
N929        N  0.80769187  0.81480219  0.78729697    -0.26060
N930        N  0.82357368  0.69051557  0.69728125    -0.25670
N931        N  0.66347063  0.75904508  0.79162508     0.01370
C932        C  0.78671760  0.86034498  0.63565447     0.42760
C933        C  0.68077233  0.65167159  0.66455465    -0.06920
N934        N  0.82186132  0.69185001  0.79265517    -0.25670
H935        H  0.83717121  0.63765601  0.65623672     0.06910
N936        N  0.75327145  0.85742055  0.66204318    -0.46890
H937        H  0.64890204  0.65794555  0.65318105     0.06900
C938        C  0.69868754  0.62474053  0.84926331     0.42600
C939        C  0.66246652  0.81365665  0.65914686    -0.06420
Co940      Co  0.68006885  0.71354424  0.74603284     0.73820
N941        N  0.74826262  0.62828734  0.67072874    -0.46610
C942        C  0.80578220  0.85412855  0.84486721     0.42870
N943        N  0.63411224  0.75749826  0.82258171    -0.46600
Co944      Co  0.78043212  0.67123083  0.74753952     0.73890
C945        C  0.83384115  0.67151840  0.82875187    -0.06930
C946        C  0.82065133  0.83415899  0.65561312    -0.06490
N947        N  0.68299408  0.79574179  0.79001980    -0.26020
N948        N  0.86144469  0.73854028  0.66165396    -0.46780
H949        H  0.86484664  0.81770067  0.82519259     0.06870
C950        C  0.67298382  0.65628829  0.82673704    -0.06900
Cl951      Cl  0.75168597  0.74299257  0.74439849    -0.49900
C952        C  0.71417266  0.62536512  0.64534031     0.42630
H953        H  0.67802489  0.85237599  0.82531331     0.06840
N954        N  0.73666039  0.62352388  0.82807893    -0.46610
C955        C  0.63544566  0.72853557  0.35961323     0.42480
N956        N  0.66352339  0.75071543  0.30029640     0.01370
C957        C  0.83070936  0.67204749  0.18223054    -0.06510
H958        H  0.85010526  0.67280500  0.35668032     0.06830
C959        C  0.84407074  0.83053036  0.33488721    -0.06860
Co960      Co  0.72152619  0.68907244  0.25757273     0.74180
N961        N  0.80064207  0.68545763  0.30888442    -0.26040
Co962      Co  0.82220912  0.72795807  0.25953213     0.74070
C963        C  0.86715566  0.79675601  0.35959135     0.42580
N964        N  0.74039877  0.85018586  0.29477285     0.00980
N965        N  0.83621753  0.77092715  0.30456757     0.01090
N966        N  0.76550453  0.64291829  0.17809740    -0.46880
H967        H  0.66571437  0.66249463  0.35327003     0.06850
N968        N  0.76132242  0.67203373  0.30664746     0.01380
N969        N  0.84176625  0.77047991  0.21001415     0.01120
C970        C  0.86752133  0.79849747  0.15206166     0.42720
N971        N  0.70099929  0.83649979  0.29674963    -0.25490
C972        C  0.66855421  0.68347118  0.17845635    -0.06410
N973        N  0.63884748  0.76187538  0.33227290    -0.46600
N974        N  0.86956510  0.76385730  0.17863073    -0.46820
C975        C  0.63822468  0.70902525  0.15484853     0.42490
N976        N  0.76797687  0.66918106  0.21119784     0.01360
N977        N  0.69996941  0.83104041  0.20147363    -0.25510
N978        N  0.67721584  0.71138701  0.30385538    -0.26010
N979        N  0.73789334  0.84842921  0.19985737     0.01000
H980        H  0.64343562  0.83762150  0.16284788     0.06890
H981        H  0.82985546  0.85972064  0.16007055     0.06930
N982        N  0.80606268  0.68583449  0.21379166    -0.26060
N983        N  0.82503115  0.81098922  0.30140938    -0.25670
N984        N  0.66345901  0.74511188  0.20628828     0.01370
C985        C  0.78346286  0.64341529  0.36580103     0.42760
C986        C  0.68262637  0.85460183  0.33129720    -0.06920
N987        N  0.82401294  0.80808637  0.20609737    -0.25670
H988        H  0.84189326  0.86377027  0.34137690     0.06910
N989        N  0.74998300  0.64723200  0.33942165    -0.46890
H990        H  0.65046893  0.84967358  0.34212019     0.06900
C991        C  0.70299123  0.87508218  0.14499389     0.42600
C992        C  0.66019182  0.69416599  0.34058612    -0.06420
Co993      Co  0.68081198  0.79125845  0.25109835     0.73820
N994        N  0.75081391  0.87546015  0.32601291    -0.46610
C995        C  0.80416957  0.64433655  0.15811197     0.42870
N996        N  0.63524336  0.74691679  0.17409773    -0.46600
Co997      Co  0.78254814  0.83062785  0.25014896     0.73890
C998        C  0.83808935  0.82790149  0.17060110    -0.06930
C999        C  0.81809359  0.66798587  0.34534884    -0.06490
N1000       N  0.68198541  0.70784443  0.20939996    -0.26020
N1001       N  0.86042075  0.76147667  0.33804443    -0.46780
H1002       H  0.86352353  0.68035885  0.17691807     0.06870
C1003       C  0.67630460  0.84540386  0.16840926    -0.06900
Cl1004     Cl  0.75170834  0.75976094  0.25445926    -0.49900
C1005       C  0.71658670  0.87976811  0.35091649     0.42630
H1006       H  0.67707501  0.65069148  0.17492607     0.06840
N1007       N  0.74073016  0.87652427  0.16673085    -0.46610
O1008       O  0.52593934  0.89161518  0.97116282    -0.80120
O1009       O  0.52903648  0.60669760  0.02721551    -0.80140
O1010       O  0.54130222  0.52671440  0.92318627    -0.80150
O1011       O  0.55057404  0.97295307  0.07391194    -0.80090
O1012       O  0.56622607  0.54140936  0.98779118    -0.80210
O1013       O  0.56696872  0.95659818  0.00676893    -0.80130
O1014       O  0.52509846  0.55820777  0.08075105    -0.80120
O1015       O  0.51774325  0.94160911  0.91945853    -0.80150
C1016       C  0.53030936  0.90427237  0.93259957     1.09570
C1017       C  0.53598253  0.59538223  0.06577529     1.09460
C1018       C  0.57203265  0.53753534  0.94725731     1.09600
C1019       C  0.57767030  0.96098244  0.04617171     1.09470
O1020       O  0.00620861  0.90857778  0.04764788    -0.80120
O1021       O  0.00050943  0.58947695  0.95411777    -0.80190
O1022       O  0.93010997  0.97056285  0.93329010    -0.80130
O1023       O  0.93775391  0.52738643  0.07614172    -0.80110
O1024       O  0.94903662  0.57673826  0.02693812    -0.80160
O1025       O  0.94705617  0.92073342  0.98025818    -0.80130
O1026       O  0.95923535  0.94836755  0.07576345    -0.80090
O1027       O  0.95010305  0.54989008  0.93283373    -0.80160
Co1028     Co  0.50731011  0.94172362  0.99267047     1.51530
Co1029     Co  0.50823511  0.55628149  0.00850020     1.51690
Co1030     Co  0.48507235  0.99788835  0.93334132     1.51570
Co1031     Co  0.49293705  0.50093200  0.07050088     1.51470
O1032       O  0.48729790  0.49903398  0.00197727    -1.42050
C1033       C  0.97407948  0.91226458  0.07034786     1.09500
C1034       C  0.96588905  0.58587658  0.93549439     1.09590
C1035       C  0.92071617  0.93686347  0.95302179     1.09530
C1036       C  0.92542172  0.56025465  0.05642135     1.09500
C1037       C  0.63666305  0.90783471  0.04885033    -0.21280
C1038       C  0.62015147  0.94648043  0.06238548    -0.09330
C1039       C  0.63965403  0.96568193  0.09794477     0.29530
C1040       C  0.67215251  0.94480577  0.12159964    -0.21280
C1041       C  0.68550738  0.90419246  0.11065426    -0.09340
C1042       C  0.66855057  0.88669297  0.07291741     0.29540
F1043       F  0.67945927  0.84691893  0.06209639    -0.19860
H1044       H  0.62179822  0.89173876  0.02238379     0.17900
H1045       H  0.68367609  0.95850357  0.15110989     0.17910
F1046       F  0.62497850  0.00317027  0.11192852    -0.19850
C1047       C  0.62789274  0.65923148  0.09794175    -0.21280
C1048       C  0.60938328  0.68928641  0.12458506    -0.09330
C1049       C  0.56546586  0.68853498  0.13180864     0.29530
C1050       C  0.54098198  0.65636028  0.11424254    -0.21280
C1051       C  0.56068027  0.62437314  0.09092971    -0.09340
C1052       C  0.60405130  0.62644541  0.08228475     0.29540
F1053       F  0.62338120  0.59637458  0.05886138    -0.19860
H1054       H  0.66182006  0.65907548  0.09240008     0.17900
H1055       H  0.50698876  0.65613156  0.11902835     0.17910
F1056       F  0.54693917  0.71696734  0.15783549    -0.19850
C1057       C  0.86003891  0.55654304  0.10288282    -0.21280
C1058       C  0.88469401  0.57939644  0.07185618    -0.09330
C1059       C  0.87375228  0.62177599  0.06293263     0.29530
C1060       C  0.84240488  0.64156376  0.08774806    -0.21280
C1061       C  0.82107815  0.61965553  0.12171152    -0.09340
C1062       C  0.82900711  0.57641239  0.12778570     0.29540
F1063       F  0.81091327  0.55462185  0.16146219    -0.19860
H1064       H  0.86716564  0.52374736  0.11063907     0.17900
H1065       H  0.83754138  0.67521647  0.08309081     0.17910
F1066       F  0.89602928  0.64526032  0.03346488    -0.19850
C1067       C  0.90928305  0.87046521  0.06890646    -0.21280
C1068       C  0.95059866  0.87500627  0.08434343    -0.09330
C1069       C  0.96780618  0.84495325  0.11373106     0.29530
C1070       C  0.94154327  0.81373057  0.13195557    -0.21280
C1071       C  0.89863885  0.81249391  0.12006176    -0.09340
C1072       C  0.88366020  0.83867263  0.08585904     0.29540
F1073       F  0.84239480  0.83734627  0.07332001    -0.19860
H1074       H  0.89609686  0.89296106  0.04539990     0.17900
H1075       H  0.95332679  0.79399665  0.15863302     0.17910
F1076       F  0.00831226  0.84852776  0.12802248    -0.19850
C1077       C  0.62442641  0.84524331  0.89859326    -0.21280
C1078       C  0.60722713  0.81492955  0.87151507    -0.09330
C1079       C  0.56337605  0.81449740  0.86362180     0.29530
C1080       C  0.53749508  0.84545461  0.88162496    -0.21280
C1081       C  0.55581126  0.87748633  0.90584418    -0.09340
C1082       C  0.59926064  0.87691540  0.91452348     0.29540
F1083       F  0.61725997  0.90697389  0.93897781    -0.19860
H1084       H  0.65823003  0.84619266  0.90483852     0.17900
H1085       H  0.50351652  0.84453540  0.87676666     0.17910
F1086       F  0.54614828  0.78586557  0.83699969    -0.19850
C1087       C  0.64169984  0.57735511  0.94615414    -0.21280
C1088       C  0.61298078  0.55036589  0.92574952    -0.09330
C1089       C  0.62045893  0.54130034  0.88178365     0.29530
C1090       C  0.65299670  0.56163925  0.85833107    -0.21280
C1091       C  0.67906939  0.59150708  0.87770666    -0.09340
C1092       C  0.67412261  0.59801117  0.92238068     0.29540
F1093       F  0.69805036  0.62732590  0.94211418    -0.19860
H1094       H  0.63698680  0.58524561  0.97965260     0.17900
H1095       H  0.65531139  0.55687179  0.82376073     0.17910
F1096       F  0.59432578  0.51518007  0.86024514    -0.19850
C1097       C  0.93524652  0.68574010  0.87510286    -0.21280
C1098       C  0.89156050  0.68565643  0.88325319    -0.09330
C1099       C  0.87475971  0.65836986  0.91549345     0.29530
C1100       C  0.89989653  0.62654915  0.93359001    -0.21280
C1101       C  0.94232914  0.62318283  0.92133141    -0.09340
C1102       C  0.96088244  0.65452313  0.89450690     0.29540
F1103       F  0.00241992  0.65213817  0.88338956    -0.19860
H1104       H  0.94849258  0.70648406  0.85011801     0.17900
H1105       H  0.88574143  0.60324799  0.95550238     0.17910
F1106       F  0.83269455  0.65883155  0.92486026    -0.19850
C1107       C  0.84717068  0.85191301  0.91383935    -0.21280
C1108       C  0.82163748  0.87539576  0.88414444    -0.09330
C1109       C  0.82222489  0.91947567  0.88590535     0.29530
C1110       C  0.85115767  0.93938236  0.91329174    -0.21280
C1111       C  0.88057983  0.91585745  0.93910497    -0.09340
C1112       C  0.87620148  0.87177059  0.94119450     0.29540
F1113       F  0.90321216  0.84757766  0.96560128    -0.19860
H1114       H  0.84742750  0.81779323  0.91300206     0.17900
H1115       H  0.85328677  0.97345917  0.91104156     0.17910
F1116       F  0.79904887  0.94330983  0.85723722    -0.19850
C1117       C  0.68959506  0.93627804  0.39840520    -0.21280
C1118       C  0.71895013  0.90420813  0.39075618    -0.09330
C1119       C  0.75654526  0.90199199  0.41563497     0.29530
C1120       C  0.76603430  0.93314308  0.44515989    -0.21280
C1121       C  0.73794481  0.96670376  0.45083056    -0.09340
C1122       C  0.69907100  0.96745637  0.42819157     0.29540
F1123       F  0.67110682  0.49948303  0.43354117    -0.19860
H1124       H  0.66091771  0.93894577  0.37916730     0.17900
H1125       H  0.79594947  0.93190067  0.46242308     0.17910
F1126       F  0.78526921  0.87074620  0.40964283    -0.19850
C1127       C  0.73361404  0.57704249  0.45313488    -0.21280
C1128       C  0.76141547  0.54263266  0.45517287    -0.09330
C1129       C  0.80078863  0.54546984  0.43377150     0.29530
C1130       C  0.81086670  0.58125352  0.40818027    -0.21280
C1131       C  0.78167002  0.61438402  0.40372222    -0.09340
C1132       C  0.74380495  0.61283323  0.42795400     0.29540
F1133       F  0.71521904  0.64487405  0.42471655    -0.19860
H1134       H  0.70341744  0.57554250  0.46974821     0.17900
H1135       H  0.83971270  0.58153149  0.38917913     0.17910
F1136       F  0.82859932  0.51273345  0.43602651    -0.19850
C1137       C  0.73707644  0.92402507  0.54582675    -0.21280
C1138       C  0.76276848  0.95990936  0.54525636    -0.09330
C1139       C  0.80121415  0.95898066  0.56862452     0.29530
C1140       C  0.81235570  0.92356807  0.59443160    -0.21280
C1141       C  0.78515564  0.88885673  0.59729071    -0.09340
C1142       C  0.74829874  0.88864647  0.57139509     0.29540
F1143       F  0.72142855  0.85528342  0.57351755    -0.19860
H1144       H  0.70748645  0.92409244  0.52799221     0.17900
H1145       H  0.84022443  0.92474553  0.61490910     0.17910
F1146       F  0.82696233  0.99320293  0.56812492    -0.19850
C1147       C  0.76393094  0.57060589  0.55269042    -0.21280
C1148       C  0.73732437  0.53567580  0.54898818    -0.09330
C1149       C  0.69887118  0.53441353  0.57221171     0.29530
C1150       C  0.68835968  0.56661329  0.60051465    -0.21280
C1151       C  0.71619399  0.60031152  0.60598836    -0.09340
C1152       C  0.75332955  0.60281150  0.58062296     0.29540
F1153       F  0.78078324  0.63530519  0.58499235    -0.19860
H1154       H  0.79356251  0.57225353  0.53505604     0.17900
H1155       H  0.66023461  0.56358703  0.62043973     0.17910
F1156       F  0.67232866  0.50107282  0.56879529    -0.19850
C1157       C  0.96879047  0.75893109  0.40577097    -0.21280
C1158       C  0.96544013  0.76659885  0.45042892    -0.09330
C1159       C  0.93150884  0.79277808  0.46363047     0.29530
C1160       C  0.90016530  0.80661391  0.43346008    -0.21280
C1161       C  0.90394106  0.79730666  0.38933907    -0.09340
C1162       C  0.93995372  0.77529985  0.37585860     0.29540
F1163       F  0.94556871  0.76641068  0.33340222    -0.19860
H1164       H  0.99406920  0.73999384  0.39294179     0.17900
H1165       H  0.87240150  0.82312347  0.44476738     0.17910
F1166       F  0.92822637  0.80479667  0.50530878    -0.19850
C1167       C  0.58570674  0.69601392  0.41450401    -0.21280
C1168       C  0.60920187  0.73075100  0.39906813    -0.09330
C1169       C  0.60184368  0.77063177  0.41684218     0.29530
C1170       C  0.56822151  0.77668335  0.44509212    -0.21280
C1171       C  0.54230469  0.74287249  0.45740419    -0.09340
C1172       C  0.55244771  0.70199178  0.44389324     0.29540
F1173       F  0.52779498  0.66873076  0.45610277    -0.19860
H1174       H  0.59091571  0.66510987  0.40146622     0.17900
H1175       H  0.56114018  0.80813185  0.45586068     0.17910
F1176       F  0.62571146  0.80452967  0.40499410    -0.19850
C1177       C  0.92899761  0.71459478  0.53623959    -0.21280
C1178       C  0.96663766  0.73223520  0.55302351    -0.09330
C1179       C  0.97217634  0.72918335  0.59883634     0.29530
C1180       C  0.94073349  0.71260550  0.62573101    -0.21280
C1181       C  0.90171325  0.70020324  0.60921862    -0.09340
C1182       C  0.89626926  0.70012327  0.56403640     0.29540
F1183       F  0.85854718  0.68864194  0.54689144    -0.19860
H1184       H  0.92385393  0.71320290  0.50170002     0.17900
H1185       H  0.94546194  0.71338154  0.66055414     0.17910
F1186       F  0.00721042  0.74330895  0.61923170    -0.19850
C1187       C  0.58173799  0.81154944  0.58932220    -0.21280
C1188       C  0.61129850  0.77960862  0.59925031    -0.09330
C1189       C  0.60859351  0.74101162  0.57791568     0.29530
C1190       C  0.57381295  0.73238242  0.55194755    -0.21280
C1191       C  0.54206537  0.76273742  0.54526177    -0.09340
C1192       C  0.54730937  0.80326901  0.56198583     0.29540
F1193       F  0.51709147  0.83329321  0.55517371    -0.19860
H1194       H  0.58314071  0.84129447  0.60559764     0.17900
H1195       H  0.57050282  0.70125911  0.53884669     0.17910
F1196       F  0.63788774  0.71014902  0.58520859    -0.19850
loop_ 
_geom_bond_atom_site_label_1 
_geom_bond_atom_site_label_2 
_geom_bond_distance 
_geom_bond_site_symmetry_2 
_ccdc_geom_bond_type 
C1          C281   1.525       .  S
C1          C892   1.491       .  S
C1          C600   1.368       .  D
C2          C274   1.493       .  S
C2          C859   1.517   1_455  S
C2          C599   1.368       .  D
C3          C241   1.484       .  S
C3          C550   1.487       .  S
C3          C303   1.356       .  D
C4          C231   1.482       .  S
C4          C523   1.486   1_545  S
C4          C302   1.356   1_545  D
C5           N23   1.336       .  A
C5           C42   1.474       .  S
C5          C291   1.472       .  S
N6           N23   1.313       .  A
N6           N28   1.321       .  A
N6          Co43   2.034       .  S
C7           N32   1.331       .  A
C7           C45   1.441       .  S
C7           H52   1.080       .  S
H8           C49   1.081       .  S
C9           N33   1.357       .  A
C9           C13   1.479       .  S
C9           H38   1.081       .  S
Co10         N28   2.133       .  S
Co10         N18   2.029       .  S
Co10         N50   2.016       .  S
Co10         N26   2.150       .  S
Co10        Cl54   2.438       .  S
N11          C49   1.355       .  A
N11          N18   1.316       .  A
N11         Co12   2.117       .  S
Co12         N15   2.035       .  S
Co12         N32   2.045       .  S
Co12         N19   2.101       .  S
Co12        Cl54   2.449       .  S
C13          N51   1.339       .  A
C13         C284   1.474       .  S
N14          N21   1.318       .  A
N14          N44   1.313       .  A
N14         Co47   2.024       .  S
N15          N33   1.319       .  A
N15          N51   1.314       .  A
N16          C45   1.367       .  A
N16          N26   1.339       .  A
H17          C42   1.081       .  S
N18          N39   1.313       .  A
N19          N37   1.319       .  A
N19          N24   1.328       .  A
C20          N24   1.352       .  A
C20          C48   1.444       .  S
C20         C201   1.453       .  S
N21          C36   1.356       .  A
N21         Co43   2.135       .  S
C22          N50   1.317       .  A
C22          C25   1.437       .  S
C22          H56   1.082       .  S
C25          N46   1.358       .  A
C25         C181   1.457       .  S
N26          N32   1.317       .  A
N27          C53   1.333       .  A
N27          N29   1.318       .  A
N27         Co43   2.052       .  S
N28          C42   1.356       .  A
N29          N57   1.338       .  A
N29         Co47   2.149       .  S
H30          C53   1.081       .  S
H31          C48   1.081       .  S
N33         Co47   2.141       .  S
N34          N46   1.331       .  A
N34          N50   1.318       .  A
N34         Co43   2.110       .  S
C35          N39   1.335       .  A
C35          C49   1.475       .  S
C35         C244   1.468       .  S
C36          C55   1.478       .  S
C36          H40   1.080       .  S
N37          C48   1.324       .  A
N37         Co47   2.032       .  S
C41          N57   1.366       .  A
C41          C53   1.447       .  S
C41         C194   1.488       .  S
Co43        Cl54   2.447       .  S
N44          C55   1.335       .  A
C45         C211   1.491       .  S
Co47        Cl54   2.446       .  S
C55         C254   1.472       .  S
C58          N76   1.337       .  A
C58          C95   1.475       .  S
C58         C271   1.476       .  S
N59          N76   1.314       .  A
N59          N81   1.320       .  A
N59         Co96   2.036       .  S
C60          N85   1.330       .  A
C60          C98   1.438       .  S
C60         H105   1.080       .  S
H61         C102   1.081       .  S
C62          N86   1.360       .  A
C62          C66   1.484       .  S
C62          H91   1.081       .  S
Co63         N81   2.134       .  S
Co63         N71   2.025       .  S
Co63        N103   2.014       .  S
Co63         N79   2.156       .  S
Co63       Cl107   2.438       .  S
N64         C102   1.354       .  A
N64          N71   1.315       .  A
N64         Co65   2.117       .  S
Co65         N68   2.024       .  S
Co65         N85   2.037       .  S
Co65         N72   2.102       .  S
Co65       Cl107   2.442       .  S
C66         N104   1.336       .  A
C66         C264   1.479       .  S
N67          N74   1.319       .  A
N67          N97   1.314       .  A
N67        Co100   2.025       .  S
N68          N86   1.318       .  A
N68         N104   1.310       .  A
N69          C98   1.368       .  A
N69          N79   1.339       .  A
H70          C95   1.080       .  S
N71          N92   1.313       .  A
N72          N90   1.318       .  A
N72          N77   1.328       .  A
C73          N77   1.352       .  A
C73         C101   1.445       .  S
C73         C174   1.454       .  S
N74          C89   1.356       .  A
N74         Co96   2.138       .  S
C75         N103   1.317       .  A
C75          C78   1.435       .  S
C75         H109   1.082       .  S
C78          N99   1.359       .  A
C78         C151   1.459       .  S
N79          N85   1.317       .  A
N80         C106   1.331       .  A
N80          N82   1.319       .  A
N80         Co96   2.047       .  S
N81          C95   1.355       .  A
N82         N110   1.339       .  A
N82        Co100   2.155       .  S
H83         C106   1.081       .  S
H84         C101   1.081       .  S
N86        Co100   2.148       .  S
N87          N99   1.332       .  A
N87         N103   1.318       .  A
N87         Co96   2.116       .  S
C88          N92   1.335       .  A
C88         C102   1.475       .  S
C88         C234   1.468       .  S
C89         C108   1.478       .  S
C89          H93   1.079       .  S
N90         C101   1.324       .  A
N90        Co100   2.031       .  S
C94         N110   1.367       .  A
C94         C106   1.443       .  S
C94         C144   1.488       .  S
Co96       Cl107   2.447       .  S
N97         C108   1.335       .  A
C98         C164   1.487       .  S
Co100      Cl107   2.452       .  S
C108        C221   1.474       .  S
O111        C119   1.252       .  A
O111       Co131   1.836       .  S
O112        C120   1.251       .  A
O112       Co132   1.839       .  S
O113        C121   1.274       .  A
O113       Co432   2.019   1_445  S
O114        C122   1.275       .  A
O114       Co433   2.022   1_455  S
O115        C121   1.274       .  A
O115       Co132   1.998   1_556  S
O116        C122   1.273       .  A
O116       Co131   1.992   1_554  S
O117        C120   1.300       .  A
O117       Co134   2.115   1_455  S
O118        C119   1.300       .  A
O118       Co133   2.113   1_455  S
C119        C184   1.446       .  S
C120        C154   1.449       .  S
C121        C191   1.505       .  S
C122        C141   1.496       .  S
O123        C136   1.240       .  A
O123       Co729   1.969   1_554  S
O124        C137   1.240       .  A
O124       Co730   1.968   1_556  S
O125        C138   1.251       .  A
O125       Co731   1.941       .  S
O126        C139   1.252       .  A
O126       Co732   1.940       .  S
O127        C139   1.277       .  A
O127       Co730   2.061       .  S
O128        C138   1.276       .  A
O128       Co729   2.055       .  S
O129        C136   1.252       .  A
O129      Co1031   1.983       .  S
O130        C137   1.251       .  A
O130      Co1030   1.981   1_545  S
Co131       O721   1.969   1_556  S
Co131       O726   2.055   1_455  S
Co131       O434   1.952   1_456  S
Co132       O722   1.968   1_554  S
Co132       O725   2.061   1_455  S
Co132       O135   1.950   1_445  S
Co133       O412   2.019   1_655  S
Co133       O723   1.941       .  S
Co133      O1027   1.981       .  S
Co133       O434   2.120   1_556  S
Co134       O413   2.022   1_645  S
Co134       O724   1.940       .  S
Co134      O1026   1.983   1_545  S
Co134       O135   2.124   1_545  S
O135       Co430   1.952   1_654  S
O135       Co432   2.120   1_554  S
C136        C171   1.451       .  S
C137        C204   1.451       .  S
C138        C214   1.501       .  S
C139        C161   1.503       .  S
C140        H147   1.083       .  S
C140        C141   1.405       .  A
C140        C145   1.406       .  A
C141        C142   1.412       .  A
C142        C143   1.409       .  A
C142        F149   1.357       .  S
C143        H148   1.083       .  S
C143        C144   1.405       .  A
C144        C145   1.410       .  A
C145        F146   1.358       .  S
C150        H157   1.084       .  S
C150        C151   1.404       .  A
C150        C155   1.383       .  A
C151        C152   1.404       .  A
C152        C153   1.403       .  A
C152        F159   1.357       .  S
C153        H158   1.083       .  S
C153        C154   1.405       .  A
C154        C155   1.396       .  A
C155        F156   1.357       .  S
C160        H167   1.083       .  S
C160        C161   1.418       .  A
C160        C165   1.405       .  A
C161        C162   1.406       .  A
C162        C163   1.409       .  A
C162        F169   1.356       .  S
C163        H168   1.083       .  S
C163        C164   1.412       .  A
C164        C165   1.400       .  A
C165        F166   1.358       .  S
C170        H177   1.084       .  S
C170        C171   1.396       .  A
C170        C175   1.385       .  A
C171        C172   1.403       .  A
C172        C173   1.398       .  A
C172        F179   1.357       .  S
C173        H178   1.083       .  S
C173        C174   1.403       .  A
C174        C175   1.403       .  A
C175        F176   1.359       .  S
C180        H187   1.084       .  S
C180        C181   1.402       .  A
C180        C185   1.381       .  A
C181        C182   1.404       .  A
C182        C183   1.403       .  A
C182        F189   1.357       .  S
C183        H188   1.083       .  S
C183        C184   1.404       .  A
C184        C185   1.396       .  A
C185        F186   1.358       .  S
C190        H197   1.081       .  S
C190        C191   1.409       .  A
C190        C195   1.411       .  A
C191        C192   1.415       .  A
C192        C193   1.404       .  A
C192        F199   1.358       .  S
C193        H198   1.084       .  S
C193        C194   1.403       .  A
C194        C195   1.408       .  A
C195        F196   1.357       .  S
C200        H207   1.083       .  S
C200        C201   1.401       .  A
C200        C205   1.397       .  A
C201        C202   1.404       .  A
C202        C203   1.385       .  A
C202        F209   1.359       .  S
C203        H208   1.084       .  S
C203        C204   1.396       .  A
C204        C205   1.404       .  A
C205        F206   1.357       .  S
C210        H217   1.083       .  S
C210        C211   1.413       .  A
C210        C215   1.407       .  A
C211        C212   1.401       .  A
C212        C213   1.407       .  A
C212        F219   1.357       .  S
C213        H218   1.083       .  S
C213        C214   1.418       .  A
C214        C215   1.405       .  A
C215        F216   1.357       .  S
C220        H227   1.083       .  S
C220        C221   1.399       .  A
C220        C225   1.402       .  A
C221        C222   1.412       .  A
C222        C223   1.397       .  A
C222        F229   1.358       .  S
C223        H228   1.083       .  S
C223        C224   1.398       .  A
C224        C303   1.486       .  S
C224        C225   1.410       .  A
C225        F525   1.357       .  S
F226        C524   1.357       .  S
C230        H237   1.083       .  S
C230        C231   1.398       .  A
C230        C235   1.395       .  A
C231        C232   1.409       .  A
C232        C233   1.400       .  A
C232        F239   1.357       .  S
C233        H238   1.083       .  S
C233        C234   1.399       .  A
C234        C235   1.410       .  A
C235        F236   1.358       .  S
C240        H247   1.083       .  S
C240        C241   1.399       .  A
C240        C245   1.396       .  A
C241        C242   1.410       .  A
C242        C243   1.401       .  A
C242        F249   1.357       .  S
C243        H248   1.083       .  S
C243        C244   1.399       .  A
C244        C245   1.410       .  A
C245        F246   1.358       .  S
C250        H257   1.083       .  S
C250        C251   1.399       .  A
C250        C255   1.396       .  A
C251        C302   1.487   1_545  S
C251        C252   1.410       .  A
C252        C253   1.403       .  A
C252        F259   1.357       .  S
C253        H258   1.083       .  S
C253        C254   1.399       .  A
C254        C255   1.411       .  A
C255        F256   1.358       .  S
C260        H267   1.080       .  S
C260        C261   1.410       .  A
C260        C265   1.384       .  A
C261        C600   1.517       .  S
C261        C262   1.420       .  A
C262        C263   1.416       .  A
C262        F269   1.356       .  S
C263        H268   1.083       .  S
C263        C264   1.407       .  A
C264        C265   1.402       .  A
C265        F266   1.360       .  S
C270        H277   1.083       .  S
C270        C271   1.401       .  A
C270        C275   1.404       .  A
C271        C272   1.412       .  A
C272        C273   1.390       .  A
C272        F279   1.356       .  S
C273        H278   1.083       .  S
C273        C274   1.394       .  A
C274        C275   1.410       .  A
C275        F276   1.357       .  S
C280        H287   1.080       .  S
C280        C281   1.418       .  A
C280        C285   1.412       .  A
C281        C282   1.424       .  A
C282        C283   1.388       .  A
C282        F289   1.355       .  S
C283        H288   1.085       .  S
C283        C284   1.394       .  A
C284        C285   1.404       .  A
C285        F286   1.357       .  S
C290        H297   1.083       .  S
C290        C291   1.401       .  A
C290        C295   1.404       .  A
C291        C292   1.410       .  A
C292        C293   1.390       .  A
C292        F299   1.358       .  S
C293        H298   1.083       .  S
C293        C294   1.398       .  A
C294        C599   1.491       .  S
C294        C295   1.409       .  A
C295        F296   1.357       .  S
C300        C580   1.525       .  S
C300       C1191   1.491       .  S
C300        C899   1.368       .  D
C301       C1158   1.517   1_455  S
C301        C573   1.493       .  S
C301        C898   1.368       .  D
C302        C540   1.484       .  S
C303        C530   1.482       .  S
C304        N322   1.336       .  A
C304        C341   1.474       .  S
C304        C590   1.472       .  S
N305        N322   1.313       .  A
N305        N327   1.321       .  A
N305       Co342   2.034       .  S
C306        N331   1.331       .  A
C306        C344   1.441       .  S
C306        H351   1.080       .  S
H307        C348   1.081       .  S
C308        N332   1.357       .  A
C308        C312   1.479       .  S
C308        H337   1.081       .  S
Co309       N327   2.133       .  S
Co309       N317   2.029       .  S
Co309       N349   2.016       .  S
Co309       N325   2.150       .  S
Co309      Cl353   2.438       .  S
N310        C348   1.355       .  A
N310        N317   1.316       .  A
N310       Co311   2.117       .  S
Co311       N314   2.035       .  S
Co311       N331   2.045       .  S
Co311       N318   2.101       .  S
Co311      Cl353   2.449       .  S
C312        N350   1.339       .  A
C312        C583   1.474       .  S
N313        N320   1.318       .  A
N313        N343   1.313       .  A
N313       Co346   2.024       .  S
N314        N332   1.319       .  A
N314        N350   1.314       .  A
N315        C344   1.367       .  A
N315        N325   1.339       .  A
H316        C341   1.081       .  S
N317        N338   1.313       .  A
N318        N336   1.319       .  A
N318        N323   1.328       .  A
C319        N323   1.352       .  A
C319        C347   1.444       .  S
C319        C500   1.453       .  S
N320        C335   1.356       .  A
N320       Co342   2.135       .  S
C321        N349   1.317       .  A
C321        C324   1.437       .  S
C321        H355   1.082       .  S
C324        N345   1.358       .  A
C324        C480   1.457       .  S
N325        N331   1.317       .  A
N326        C352   1.333       .  A
N326        N328   1.318       .  A
N326       Co342   2.052       .  S
N327        C341   1.356       .  A
N328        N356   1.338       .  A
N328       Co346   2.149       .  S
H329        C352   1.081       .  S
H330        C347   1.081       .  S
N332       Co346   2.141       .  S
N333        N345   1.331       .  A
N333        N349   1.318       .  A
N333       Co342   2.110       .  S
C334        N338   1.335       .  A
C334        C348   1.475       .  S
C334        C543   1.468       .  S
C335        C354   1.478       .  S
C335        H339   1.080       .  S
N336        C347   1.324       .  A
N336       Co346   2.032       .  S
C340        N356   1.366       .  A
C340        C352   1.447       .  S
C340        C493   1.488       .  S
Co342      Cl353   2.447       .  S
N343        C354   1.335       .  A
C344        C510   1.491       .  S
Co346      Cl353   2.446       .  S
C354        C553   1.472       .  S
C357        N375   1.337       .  A
C357        C394   1.475       .  S
C357        C570   1.476       .  S
N358        N375   1.314       .  A
N358        N380   1.320       .  A
N358       Co395   2.036       .  S
C359        N384   1.330       .  A
C359        C397   1.438       .  S
C359        H404   1.080       .  S
H360        C401   1.081       .  S
C361        N385   1.360       .  A
C361        C365   1.484       .  S
C361        H390   1.081       .  S
Co362       N380   2.134       .  S
Co362       N370   2.025       .  S
Co362       N402   2.014       .  S
Co362       N378   2.156       .  S
Co362      Cl406   2.438       .  S
N363        C401   1.354       .  A
N363        N370   1.315       .  A
N363       Co364   2.117       .  S
Co364       N367   2.024       .  S
Co364       N384   2.037       .  S
Co364       N371   2.102       .  S
Co364      Cl406   2.442       .  S
C365        N403   1.336       .  A
C365        C563   1.479       .  S
N366        N373   1.319       .  A
N366        N396   1.314       .  A
N366       Co399   2.025       .  S
N367        N385   1.318       .  A
N367        N403   1.310       .  A
N368        C397   1.368       .  A
N368        N378   1.339       .  A
H369        C394   1.080       .  S
N370        N391   1.313       .  A
N371        N389   1.318       .  A
N371        N376   1.328       .  A
C372        N376   1.352       .  A
C372        C400   1.445       .  S
C372        C473   1.454       .  S
N373        C388   1.356       .  A
N373       Co395   2.138       .  S
C374        N402   1.317       .  A
C374        C377   1.435       .  S
C374        H408   1.082       .  S
C377        N398   1.359       .  A
C377        C450   1.459       .  S
N378        N384   1.317       .  A
N379        C405   1.331       .  A
N379        N381   1.319       .  A
N379       Co395   2.047       .  S
N380        C394   1.355       .  A
N381        N409   1.339       .  A
N381       Co399   2.155       .  S
H382        C405   1.081       .  S
H383        C400   1.081       .  S
N385       Co399   2.148       .  S
N386        N398   1.332       .  A
N386        N402   1.318       .  A
N386       Co395   2.116       .  S
C387        N391   1.335       .  A
C387        C401   1.475       .  S
C387        C533   1.468       .  S
C388        C407   1.478       .  S
C388        H392   1.079       .  S
N389        C400   1.324       .  A
N389       Co399   2.031       .  S
C393        N409   1.367       .  A
C393        C405   1.443       .  S
C393        C443   1.488       .  S
Co395      Cl406   2.447       .  S
N396        C407   1.335       .  A
C397        C463   1.487       .  S
Co399      Cl406   2.452       .  S
C407        C520   1.474       .  S
O410        C418   1.252       .  A
O410       Co430   1.836       .  S
O411        C419   1.251       .  A
O411       Co431   1.839       .  S
O412        C420   1.274       .  A
O413        C421   1.275       .  A
O414        C420   1.274       .  A
O414       Co431   1.998   1_556  S
O415        C421   1.273       .  A
O415       Co430   1.992   1_554  S
O416        C419   1.300       .  A
O416       Co433   2.115   1_455  S
O417        C418   1.300       .  A
O417       Co432   2.113   1_455  S
C418        C483   1.446       .  S
C419        C453   1.449       .  S
C420        C490   1.505       .  S
C421        C440   1.496       .  S
O422        C435   1.240       .  A
O422      Co1028   1.969   1_554  S
O423        C436   1.240       .  A
O423      Co1029   1.968   1_556  S
O424        C437   1.251       .  A
O424      Co1030   1.941       .  S
O425        C438   1.252       .  A
O425      Co1031   1.940       .  S
O426        C438   1.277       .  A
O426      Co1029   2.061       .  S
O427        C437   1.276       .  A
O427      Co1028   2.055       .  S
O428        C435   1.252       .  A
O428       Co732   1.983   1_565  S
O429        C436   1.251       .  A
O429       Co731   1.981       .  S
Co430      O1020   1.969   1_556  S
Co430      O1025   2.055   1_455  S
Co431      O1021   1.968   1_554  S
Co431      O1024   2.061   1_455  S
Co431       O434   1.950   1_455  S
Co432      O1022   1.941       .  S
Co432       O728   1.981   1_565  S
Co433      O1023   1.940       .  S
Co433       O727   1.983       .  S
Co433       O434   2.124       .  S
C435        C470   1.451       .  S
C436        C503   1.451       .  S
C437        C513   1.501       .  S
C438        C460   1.503       .  S
C439        H446   1.083       .  S
C439        C440   1.405       .  A
C439        C444   1.406       .  A
C440        C441   1.412       .  A
C441        C442   1.409       .  A
C441        F448   1.357   1_565  S
C442        H447   1.083       .  S
C442        C443   1.405       .  A
C443        C444   1.410       .  A
C444        F445   1.358       .  S
C449        H456   1.084       .  S
C449        C450   1.404       .  A
C449        C454   1.383       .  A
C450        C451   1.404       .  A
C451        C452   1.403       .  A
C451        F458   1.357       .  S
C452        H457   1.083       .  S
C452        C453   1.405       .  A
C453        C454   1.396       .  A
C454        F455   1.357       .  S
C459        H466   1.083       .  S
C459        C460   1.418       .  A
C459        C464   1.405       .  A
C460        C461   1.406       .  A
C461        C462   1.409       .  A
C461        F468   1.356       .  S
C462        H467   1.083       .  S
C462        C463   1.412       .  A
C463        C464   1.400       .  A
C464        F465   1.358       .  S
C469        H476   1.084       .  S
C469        C470   1.396       .  A
C469        C474   1.385       .  A
C470        C471   1.403       .  A
C471        C472   1.398       .  A
C471        F478   1.357       .  S
C472        H477   1.083       .  S
C472        C473   1.403       .  A
C473        C474   1.403       .  A
C474        F475   1.359       .  S
C479        H486   1.084       .  S
C479        C480   1.402       .  A
C479        C484   1.381       .  A
C480        C481   1.404       .  A
C481        C482   1.403       .  A
C481        F488   1.357       .  S
C482        H487   1.083       .  S
C482        C483   1.404       .  A
C483        C484   1.396       .  A
C484        F485   1.358       .  S
C489        H496   1.081       .  S
C489        C490   1.409       .  A
C489        C494   1.411       .  A
C490        C491   1.415       .  A
C491        C492   1.404       .  A
C491        F498   1.358       .  S
C492        H497   1.084       .  S
C492        C493   1.403       .  A
C493        C494   1.408       .  A
C494        F495   1.357       .  S
C499        H506   1.083       .  S
C499        C500   1.401       .  A
C499        C504   1.397       .  A
C500        C501   1.404       .  A
C501        C502   1.385       .  A
C501        F508   1.359       .  S
C502        H507   1.084       .  S
C502        C503   1.396       .  A
C503        C504   1.404       .  A
C504        F505   1.357       .  S
C509        H516   1.083       .  S
C509        C510   1.413       .  A
C509        C514   1.407       .  A
C510        C511   1.401       .  A
C511        C512   1.407       .  A
C511        F518   1.357       .  S
C512        H517   1.083       .  S
C512        C513   1.418       .  A
C513        C514   1.405       .  A
C514        F515   1.357       .  S
C519        H526   1.083       .  S
C519        C520   1.399       .  A
C519        C524   1.402       .  A
C520        C521   1.412       .  A
C521        C522   1.397       .  A
C521        F528   1.358       .  S
C522        H527   1.083       .  S
C522        C523   1.398       .  A
C523        C524   1.410       .  A
C529        H536   1.083       .  S
C529        C530   1.398       .  A
C529        C534   1.395       .  A
C530        C531   1.409       .  A
C531        C532   1.400       .  A
C531        F538   1.357       .  S
C532        H537   1.083       .  S
C532        C533   1.399       .  A
C533        C534   1.410       .  A
C534        F535   1.358       .  S
C539        H546   1.083       .  S
C539        C540   1.399       .  A
C539        C544   1.396       .  A
C540        C541   1.410       .  A
C541        C542   1.401       .  A
C541        F548   1.357       .  S
C542        H547   1.083       .  S
C542        C543   1.399       .  A
C543        C544   1.410       .  A
C544        F545   1.358       .  S
C549        H556   1.083       .  S
C549        C550   1.399       .  A
C549        C554   1.396       .  A
C550        C551   1.410       .  A
C551        C552   1.403       .  A
C551        F558   1.357       .  S
C552        H557   1.083       .  S
C552        C553   1.399       .  A
C553        C554   1.411       .  A
C554        F555   1.358       .  S
C559        H566   1.080       .  S
C559        C560   1.410       .  A
C559        C564   1.384       .  A
C560        C899   1.517       .  S
C560        C561   1.420       .  A
C561        C562   1.416       .  A
C561        F568   1.356       .  S
C562        H567   1.083       .  S
C562        C563   1.407       .  A
C563        C564   1.402       .  A
C564        F565   1.360       .  S
C569        H576   1.083       .  S
C569        C570   1.401       .  A
C569        C574   1.404       .  A
C570        C571   1.412       .  A
C571        C572   1.390       .  A
C571        F578   1.356       .  S
C572        H577   1.083       .  S
C572        C573   1.394       .  A
C573        C574   1.410       .  A
C574        F575   1.357       .  S
C579        H586   1.080       .  S
C579        C580   1.418       .  A
C579        C584   1.412       .  A
C580        C581   1.424       .  A
C581        C582   1.388       .  A
C581        F588   1.355       .  S
C582        H587   1.085       .  S
C582        C583   1.394       .  A
C583        C584   1.404       .  A
C584        F585   1.357       .  S
C589        H596   1.083       .  S
C589        C590   1.401       .  A
C589        C594   1.404       .  A
C590        C591   1.410       .  A
C591        C592   1.390       .  A
C591        F598   1.358       .  S
C592        H597   1.083       .  S
C592        C593   1.398       .  A
C593        C898   1.491       .  S
C593        C594   1.409       .  A
C594        F595   1.357       .  S
C599        C879   1.525   1_455  S
C600        C872   1.493       .  S
C601        C839   1.484       .  S
C601       C1148   1.487       .  S
C601        C901   1.356       .  D
C602       C1121   1.486   1_545  S
C602        C829   1.482       .  S
C602        C900   1.356   1_545  D
C603        N621   1.336       .  A
C603        C640   1.474       .  S
C603        C889   1.472       .  S
N604        N621   1.313       .  A
N604        N626   1.321       .  A
N604       Co641   2.034       .  S
C605        N630   1.331       .  A
C605        C643   1.441       .  S
C605        H650   1.080       .  S
H606        C647   1.081       .  S
C607        N631   1.357       .  A
C607        C611   1.479       .  S
C607        H636   1.081       .  S
Co608       N626   2.133       .  S
Co608       N616   2.029       .  S
Co608       N648   2.016       .  S
Co608       N624   2.150       .  S
Co608      Cl652   2.438       .  S
N609        C647   1.355       .  A
N609        N616   1.316       .  A
N609       Co610   2.117       .  S
Co610       N613   2.035       .  S
Co610       N630   2.045       .  S
Co610       N617   2.101       .  S
Co610      Cl652   2.449       .  S
C611        N649   1.339       .  A
C611        C882   1.474       .  S
N612        N619   1.318       .  A
N612        N642   1.313       .  A
N612       Co645   2.024       .  S
N613        N631   1.319       .  A
N613        N649   1.314       .  A
N614        C643   1.367       .  A
N614        N624   1.339       .  A
H615        C640   1.081       .  S
N616        N637   1.313       .  A
N617        N635   1.319       .  A
N617        N622   1.328       .  A
C618        N622   1.352       .  A
C618        C646   1.444       .  S
C618        C799   1.453       .  S
N619        C634   1.356       .  A
N619       Co641   2.135       .  S
C620        N648   1.317       .  A
C620        C623   1.437       .  S
C620        H654   1.082       .  S
C623        N644   1.358       .  A
C623        C779   1.457       .  S
N624        N630   1.317       .  A
N625        C651   1.333       .  A
N625        N627   1.318       .  A
N625       Co641   2.052       .  S
N626        C640   1.356       .  A
N627        N655   1.338       .  A
N627       Co645   2.149       .  S
H628        C651   1.081       .  S
H629        C646   1.081       .  S
N631       Co645   2.141       .  S
N632        N644   1.331       .  A
N632        N648   1.318       .  A
N632       Co641   2.110       .  S
C633        N637   1.335       .  A
C633        C647   1.475       .  S
C633        C842   1.468       .  S
C634        C653   1.478       .  S
C634        H638   1.080       .  S
N635        C646   1.324       .  A
N635       Co645   2.032       .  S
C639        N655   1.366       .  A
C639        C651   1.447       .  S
C639        C792   1.488       .  S
Co641      Cl652   2.447       .  S
N642        C653   1.335       .  A
C643        C809   1.491       .  S
Co645      Cl652   2.446       .  S
C653        C852   1.472       .  S
C656        N674   1.337       .  A
C656        C693   1.475       .  S
C656        C869   1.476       .  S
N657        N674   1.314       .  A
N657        N679   1.320       .  A
N657       Co694   2.036       .  S
C658        N683   1.330       .  A
C658        C696   1.438       .  S
C658        H703   1.080       .  S
H659        C700   1.081       .  S
C660        N684   1.360       .  A
C660        C664   1.484       .  S
C660        H689   1.081       .  S
Co661       N679   2.134       .  S
Co661       N669   2.025       .  S
Co661       N701   2.014       .  S
Co661       N677   2.156       .  S
Co661      Cl705   2.438       .  S
N662        C700   1.354       .  A
N662        N669   1.315       .  A
N662       Co663   2.117       .  S
Co663       N666   2.024       .  S
Co663       N683   2.037       .  S
Co663       N670   2.102       .  S
Co663      Cl705   2.442       .  S
C664        N702   1.336       .  A
C664        C862   1.479       .  S
N665        N672   1.319       .  A
N665        N695   1.314       .  A
N665       Co698   2.025       .  S
N666        N684   1.318       .  A
N666        N702   1.310       .  A
N667        C696   1.368       .  A
N667        N677   1.339       .  A
H668        C693   1.080       .  S
N669        N690   1.313       .  A
N670        N688   1.318       .  A
N670        N675   1.328       .  A
C671        N675   1.352       .  A
C671        C699   1.445       .  S
C671        C772   1.454       .  S
N672        C687   1.356       .  A
N672       Co694   2.138       .  S
C673        N701   1.317       .  A
C673        C676   1.435       .  S
C673        H707   1.082       .  S
C676        N697   1.359       .  A
C676        C749   1.459       .  S
N677        N683   1.317       .  A
N678        C704   1.331       .  A
N678        N680   1.319       .  A
N678       Co694   2.047       .  S
N679        C693   1.355       .  A
N680        N708   1.339       .  A
N680       Co698   2.155       .  S
H681        C704   1.081       .  S
H682        C699   1.081       .  S
N684       Co698   2.148       .  S
N685        N697   1.332       .  A
N685        N701   1.318       .  A
N685       Co694   2.116       .  S
C686        N690   1.335       .  A
C686        C700   1.475       .  S
C686        C832   1.468       .  S
C687        C706   1.478       .  S
C687        H691   1.079       .  S
N688        C699   1.324       .  A
N688       Co698   2.031       .  S
C692        N708   1.367       .  A
C692        C704   1.443       .  S
C692        C742   1.488       .  S
Co694      Cl705   2.447       .  S
N695        C706   1.335       .  A
C696        C762   1.487       .  S
Co698      Cl705   2.452       .  S
C706        C819   1.474       .  S
O709        C717   1.252       .  A
O709       Co729   1.836       .  S
O710        C718   1.251       .  A
O710       Co730   1.839       .  S
O711        C719   1.274       .  A
O711      Co1030   2.019   1_545  S
O712        C720   1.275       .  A
O712      Co1031   2.022       .  S
O713        C719   1.274       .  A
O713       Co730   1.998   1_556  S
O714        C720   1.273       .  A
O714       Co729   1.992   1_554  S
O715        C718   1.300       .  A
O715       Co732   2.115       .  S
O716        C717   1.300       .  A
O716       Co731   2.113       .  S
C717        C782   1.446       .  S
C718        C752   1.449       .  S
C719        C789   1.505       .  S
C720        C739   1.496       .  S
O721        C734   1.240   1_455  A
O722        C735   1.240   1_455  A
O723        C736   1.251       .  A
O724        C737   1.252       .  A
O725        C737   1.277       .  A
O726        C736   1.276       .  A
O727        C734   1.252       .  A
O728        C735   1.251       .  A
Co729      O1032   1.952   1_556  S
Co730       O733   1.950   1_545  S
Co731      O1010   2.019       .  S
Co731      O1032   2.120   1_556  S
Co732      O1011   2.022   1_545  S
Co732       O733   2.124   1_545  S
O733      Co1028   1.952   1_554  S
O733      Co1030   2.120   1_554  S
C734        C769   1.451       .  S
C735        C802   1.451       .  S
C736        C812   1.501       .  S
C737        C759   1.503       .  S
C738        H745   1.083       .  S
C738        C739   1.405       .  A
C738        C743   1.406       .  A
C739        C740   1.412       .  A
C740        C741   1.409       .  A
C740        F747   1.357       .  S
C741        H746   1.083       .  S
C741        C742   1.405       .  A
C742        C743   1.410       .  A
C743        F744   1.358       .  S
C748        H755   1.084       .  S
C748        C749   1.404       .  A
C748        C753   1.383       .  A
C749        C750   1.404       .  A
C750        C751   1.403       .  A
C750        F757   1.357       .  S
C751        H756   1.083       .  S
C751        C752   1.405       .  A
C752        C753   1.396       .  A
C753        F754   1.357       .  S
C758        H765   1.083       .  S
C758        C759   1.418       .  A
C758        C763   1.405       .  A
C759        C760   1.406       .  A
C760        C761   1.409       .  A
C760        F767   1.356       .  S
C761        H766   1.083       .  S
C761        C762   1.412       .  A
C762        C763   1.400       .  A
C763        F764   1.358       .  S
C768        H775   1.084       .  S
C768        C769   1.396       .  A
C768        C773   1.385       .  A
C769        C770   1.403       .  A
C770        C771   1.398       .  A
C770        F777   1.357   1_655  S
C771        H776   1.083       .  S
C771        C772   1.403       .  A
C772        C773   1.403       .  A
C773        F774   1.359       .  S
C778        H785   1.084       .  S
C778        C779   1.402       .  A
C778        C783   1.381       .  A
C779        C780   1.404       .  A
C780        C781   1.403       .  A
C780        F787   1.357       .  S
C781        H786   1.083       .  S
C781        C782   1.404       .  A
C782        C783   1.396       .  A
C783        F784   1.358       .  S
C788        H795   1.081       .  S
C788        C789   1.409       .  A
C788        C793   1.411       .  A
C789        C790   1.415       .  A
C790        C791   1.404       .  A
C790        F797   1.358       .  S
C791        H796   1.084       .  S
C791        C792   1.403       .  A
C792        C793   1.408       .  A
C793        F794   1.357       .  S
C798        H805   1.083       .  S
C798        C799   1.401       .  A
C798        C803   1.397       .  A
C799        C800   1.404       .  A
C800        C801   1.385       .  A
C800        F807   1.359       .  S
C801        H806   1.084       .  S
C801        C802   1.396       .  A
C802        C803   1.404       .  A
C803        F804   1.357   1_655  S
C808        H815   1.083       .  S
C808        C809   1.413       .  A
C808        C813   1.407       .  A
C809        C810   1.401       .  A
C810        C811   1.407       .  A
C810        F817   1.357       .  S
C811        H816   1.083       .  S
C811        C812   1.418       .  A
C812        C813   1.405       .  A
C813        F814   1.357       .  S
C818        H825   1.083       .  S
C818        C819   1.399       .  A
C818        C823   1.402       .  A
C819        C820   1.412       .  A
C820        C821   1.397       .  A
C820        F827   1.358       .  S
C821        H826   1.083       .  S
C821        C822   1.398       .  A
C822        C901   1.486       .  S
C822        C823   1.410       .  A
C823       F1123   1.357       .  S
F824       C1122   1.357       .  S
C828        H835   1.083       .  S
C828        C829   1.398       .  A
C828        C833   1.395       .  A
C829        C830   1.409       .  A
C830        C831   1.400       .  A
C830        F837   1.357       .  S
C831        H836   1.083       .  S
C831        C832   1.399       .  A
C832        C833   1.410       .  A
C833        F834   1.358       .  S
C838        H845   1.083       .  S
C838        C839   1.399       .  A
C838        C843   1.396       .  A
C839        C840   1.410       .  A
C840        C841   1.401       .  A
C840        F847   1.357       .  S
C841        H846   1.083       .  S
C841        C842   1.399       .  A
C842        C843   1.410       .  A
C843        F844   1.358       .  S
C848        H855   1.083       .  S
C848        C849   1.399       .  A
C848        C853   1.396       .  A
C849        C900   1.487   1_545  S
C849        C850   1.410       .  A
C850        C851   1.403       .  A
C850        F857   1.357       .  S
C851        H856   1.083       .  S
C851        C852   1.399       .  A
C852        C853   1.411       .  A
C853        F854   1.358       .  S
C858        H865   1.080       .  S
C858        C859   1.410       .  A
C858        C863   1.384       .  A
C859        C860   1.420       .  A
C860        C861   1.416       .  A
C860        F867   1.356       .  S
C861        H866   1.083       .  S
C861        C862   1.407       .  A
C862        C863   1.402       .  A
C863        F864   1.360       .  S
C868        H875   1.083       .  S
C868        C869   1.401       .  A
C868        C873   1.404       .  A
C869        C870   1.412       .  A
C870        C871   1.390       .  A
C870        F877   1.356       .  S
C871        H876   1.083       .  S
C871        C872   1.394       .  A
C872        C873   1.410       .  A
C873        F874   1.357       .  S
C878        H885   1.080       .  S
C878        C879   1.418       .  A
C878        C883   1.412       .  A
C879        C880   1.424       .  A
C880        C881   1.388       .  A
C880        F887   1.355   1_655  S
C881        H886   1.085       .  S
C881        C882   1.394       .  A
C882        C883   1.404       .  A
C883        F884   1.357       .  S
C888        H895   1.083       .  S
C888        C889   1.401       .  A
C888        C893   1.404       .  A
C889        C890   1.410       .  A
C890        C891   1.390       .  A
C890        F897   1.358       .  S
C891        H896   1.083       .  S
C891        C892   1.398       .  A
C892        C893   1.409       .  A
C893        F894   1.357       .  S
C898       C1178   1.525   1_455  S
C899       C1171   1.493       .  S
C900       C1138   1.484       .  S
C901       C1128   1.482       .  S
C902        N920   1.336       .  A
C902        C939   1.474       .  S
C902       C1188   1.472       .  S
N903        N920   1.313       .  A
N903        N925   1.321       .  A
N903       Co940   2.034       .  S
C904        N929   1.331       .  A
C904        C942   1.441       .  S
C904        H949   1.080       .  S
H905        C946   1.081       .  S
C906        N930   1.357       .  A
C906        C910   1.479       .  S
C906        H935   1.081       .  S
Co907       N925   2.133       .  S
Co907       N915   2.029       .  S
Co907       N947   2.016       .  S
Co907       N923   2.150       .  S
Co907      Cl951   2.438       .  S
N908        C946   1.355       .  A
N908        N915   1.316       .  A
N908       Co909   2.117       .  S
Co909       N912   2.035       .  S
Co909       N929   2.045       .  S
Co909       N916   2.101       .  S
Co909      Cl951   2.449       .  S
C910        N948   1.339       .  A
C910       C1181   1.474       .  S
N911        N918   1.318       .  A
N911        N941   1.313       .  A
N911       Co944   2.024       .  S
N912        N930   1.319       .  A
N912        N948   1.314       .  A
N913        C942   1.367       .  A
N913        N923   1.339       .  A
H914        C939   1.081       .  S
N915        N936   1.313       .  A
N916        N934   1.319       .  A
N916        N921   1.328       .  A
C917        N921   1.352       .  A
C917        C945   1.444       .  S
C917       C1098   1.453       .  S
N918        C933   1.356       .  A
N918       Co940   2.135       .  S
C919        N947   1.317       .  A
C919        C922   1.437       .  S
C919        H953   1.082       .  S
C922        N943   1.358       .  A
C922       C1078   1.457       .  S
N923        N929   1.317       .  A
N924        C950   1.333       .  A
N924        N926   1.318       .  A
N924       Co940   2.052       .  S
N925        C939   1.356       .  A
N926        N954   1.338       .  A
N926       Co944   2.149       .  S
H927        C950   1.081       .  S
H928        C945   1.081       .  S
N930       Co944   2.141       .  S
N931        N943   1.331       .  A
N931        N947   1.318       .  A
N931       Co940   2.110       .  S
C932        N936   1.335       .  A
C932        C946   1.475       .  S
C932       C1141   1.468       .  S
C933        C952   1.478       .  S
C933        H937   1.080       .  S
N934        C945   1.324       .  A
N934       Co944   2.032       .  S
C938        N954   1.366       .  A
C938        C950   1.447       .  S
C938       C1091   1.488       .  S
Co940      Cl951   2.447       .  S
N941        C952   1.335       .  A
C942       C1108   1.491       .  S
Co944      Cl951   2.446       .  S
C952       C1151   1.472       .  S
C955        N973   1.337       .  A
C955        C992   1.475       .  S
C955       C1168   1.476       .  S
N956        N973   1.314       .  A
N956        N978   1.320       .  A
N956       Co993   2.036       .  S
C957        N982   1.330       .  A
C957        C995   1.438       .  S
C957       H1002   1.080       .  S
H958        C999   1.081       .  S
C959        N983   1.360       .  A
C959        C963   1.484       .  S
C959        H988   1.081       .  S
Co960       N978   2.134       .  S
Co960       N968   2.025       .  S
Co960      N1000   2.014       .  S
Co960       N976   2.156       .  S
Co960     Cl1004   2.438       .  S
N961        C999   1.354       .  A
N961        N968   1.315       .  A
N961       Co962   2.117       .  S
Co962       N965   2.024       .  S
Co962       N982   2.037       .  S
Co962       N969   2.102       .  S
Co962     Cl1004   2.442       .  S
C963       N1001   1.336       .  A
C963       C1161   1.479       .  S
N964        N971   1.319       .  A
N964        N994   1.314       .  A
N964       Co997   2.025       .  S
N965        N983   1.318       .  A
N965       N1001   1.310       .  A
N966        C995   1.368       .  A
N966        N976   1.339       .  A
H967        C992   1.080       .  S
N968        N989   1.313       .  A
N969        N987   1.318       .  A
N969        N974   1.328       .  A
C970        N974   1.352       .  A
C970        C998   1.445       .  S
C970       C1071   1.454       .  S
N971        C986   1.356       .  A
N971       Co993   2.138       .  S
C972       N1000   1.317       .  A
C972        C975   1.435       .  S
C972       H1006   1.082       .  S
C975        N996   1.359       .  A
C975       C1048   1.459       .  S
N976        N982   1.317       .  A
N977       C1003   1.331       .  A
N977        N979   1.319       .  A
N977       Co993   2.047       .  S
N978        C992   1.355       .  A
N979       N1007   1.339       .  A
N979       Co997   2.155       .  S
H980       C1003   1.081       .  S
H981        C998   1.081       .  S
N983       Co997   2.148       .  S
N984        N996   1.332       .  A
N984       N1000   1.318       .  A
N984       Co993   2.116       .  S
C985        N989   1.335       .  A
C985        C999   1.475       .  S
C985       C1131   1.468       .  S
C986       C1005   1.478       .  S
C986        H990   1.079       .  S
N987        C998   1.324       .  A
N987       Co997   2.031       .  S
C991       N1007   1.367       .  A
C991       C1003   1.443       .  S
C991       C1041   1.488       .  S
Co993     Cl1004   2.447       .  S
N994       C1005   1.335       .  A
C995       C1061   1.487       .  S
Co997     Cl1004   2.452       .  S
C1005      C1118   1.474       .  S
O1008      C1016   1.252       .  A
O1008     Co1028   1.836       .  S
O1009      C1017   1.251       .  A
O1009     Co1029   1.839       .  S
O1010      C1018   1.274       .  A
O1011      C1019   1.275       .  A
O1012      C1018   1.274       .  A
O1012     Co1029   1.998   1_556  S
O1013      C1019   1.273       .  A
O1013     Co1028   1.992   1_554  S
O1014      C1017   1.300       .  A
O1014     Co1031   2.115       .  S
O1015      C1016   1.300       .  A
O1015     Co1030   2.113       .  S
C1016      C1081   1.446       .  S
C1017      C1051   1.449       .  S
C1018      C1088   1.505       .  S
C1019      C1038   1.496       .  S
O1020      C1033   1.240   1_455  A
O1021      C1034   1.240   1_455  A
O1022      C1035   1.251       .  A
O1023      C1036   1.252       .  A
O1024      C1036   1.277       .  A
O1025      C1035   1.276       .  A
O1026      C1033   1.252       .  A
O1027      C1034   1.251       .  A
Co1029     O1032   1.950       .  S
Co1031     O1032   2.124       .  S
C1033      C1068   1.451       .  S
C1034      C1101   1.451       .  S
C1035      C1111   1.501       .  S
C1036      C1058   1.503       .  S
C1037      H1044   1.083       .  S
C1037      C1038   1.405       .  A
C1037      C1042   1.406       .  A
C1038      C1039   1.412       .  A
C1039      C1040   1.409       .  A
C1039      F1046   1.357   1_565  S
C1040      H1045   1.083       .  S
C1040      C1041   1.405       .  A
C1041      C1042   1.410       .  A
C1042      F1043   1.358       .  S
C1047      H1054   1.084       .  S
C1047      C1048   1.404       .  A
C1047      C1052   1.383       .  A
C1048      C1049   1.404       .  A
C1049      C1050   1.403       .  A
C1049      F1056   1.357       .  S
C1050      H1055   1.083       .  S
C1050      C1051   1.405       .  A
C1051      C1052   1.396       .  A
C1052      F1053   1.357       .  S
C1057      H1064   1.083       .  S
C1057      C1058   1.418       .  A
C1057      C1062   1.405       .  A
C1058      C1059   1.406       .  A
C1059      C1060   1.409       .  A
C1059      F1066   1.356       .  S
C1060      H1065   1.083       .  S
C1060      C1061   1.412       .  A
C1061      C1062   1.400       .  A
C1062      F1063   1.358       .  S
C1067      H1074   1.084       .  S
C1067      C1068   1.396       .  A
C1067      C1072   1.385       .  A
C1068      C1069   1.403       .  A
C1069      C1070   1.398       .  A
C1069      F1076   1.357   1_655  S
C1070      H1075   1.083       .  S
C1070      C1071   1.403       .  A
C1071      C1072   1.403       .  A
C1072      F1073   1.359       .  S
C1077      H1084   1.084       .  S
C1077      C1078   1.402       .  A
C1077      C1082   1.381       .  A
C1078      C1079   1.404       .  A
C1079      C1080   1.403       .  A
C1079      F1086   1.357       .  S
C1080      H1085   1.083       .  S
C1080      C1081   1.404       .  A
C1081      C1082   1.396       .  A
C1082      F1083   1.358       .  S
C1087      H1094   1.081       .  S
C1087      C1088   1.409       .  A
C1087      C1092   1.411       .  A
C1088      C1089   1.415       .  A
C1089      C1090   1.404       .  A
C1089      F1096   1.358       .  S
C1090      H1095   1.084       .  S
C1090      C1091   1.403       .  A
C1091      C1092   1.408       .  A
C1092      F1093   1.357       .  S
C1097      H1104   1.083       .  S
C1097      C1098   1.401       .  A
C1097      C1102   1.397       .  A
C1098      C1099   1.404       .  A
C1099      C1100   1.385       .  A
C1099      F1106   1.359       .  S
C1100      H1105   1.084       .  S
C1100      C1101   1.396       .  A
C1101      C1102   1.404       .  A
C1102      F1103   1.357   1_655  S
C1107      H1114   1.083       .  S
C1107      C1108   1.413       .  A
C1107      C1112   1.407       .  A
C1108      C1109   1.401       .  A
C1109      C1110   1.407       .  A
C1109      F1116   1.357       .  S
C1110      H1115   1.083       .  S
C1110      C1111   1.418       .  A
C1111      C1112   1.405       .  A
C1112      F1113   1.357       .  S
C1117      H1124   1.083       .  S
C1117      C1118   1.399       .  A
C1117      C1122   1.402       .  A
C1118      C1119   1.412       .  A
C1119      C1120   1.397       .  A
C1119      F1126   1.358       .  S
C1120      H1125   1.083       .  S
C1120      C1121   1.398       .  A
C1121      C1122   1.410       .  A
C1127      H1134   1.083       .  S
C1127      C1128   1.398       .  A
C1127      C1132   1.395       .  A
C1128      C1129   1.409       .  A
C1129      C1130   1.400       .  A
C1129      F1136   1.357       .  S
C1130      H1135   1.083       .  S
C1130      C1131   1.399       .  A
C1131      C1132   1.410       .  A
C1132      F1133   1.358       .  S
C1137      H1144   1.083       .  S
C1137      C1138   1.399       .  A
C1137      C1142   1.396       .  A
C1138      C1139   1.410       .  A
C1139      C1140   1.401       .  A
C1139      F1146   1.357       .  S
C1140      H1145   1.083       .  S
C1140      C1141   1.399       .  A
C1141      C1142   1.410       .  A
C1142      F1143   1.358       .  S
C1147      H1154   1.083       .  S
C1147      C1148   1.399       .  A
C1147      C1152   1.396       .  A
C1148      C1149   1.410       .  A
C1149      C1150   1.403       .  A
C1149      F1156   1.357       .  S
C1150      H1155   1.083       .  S
C1150      C1151   1.399       .  A
C1151      C1152   1.411       .  A
C1152      F1153   1.358       .  S
C1157      H1164   1.080       .  S
C1157      C1158   1.410       .  A
C1157      C1162   1.384       .  A
C1158      C1159   1.420       .  A
C1159      C1160   1.416       .  A
C1159      F1166   1.356       .  S
C1160      H1165   1.083       .  S
C1160      C1161   1.407       .  A
C1161      C1162   1.402       .  A
C1162      F1163   1.360       .  S
C1167      H1174   1.083       .  S
C1167      C1168   1.401       .  A
C1167      C1172   1.404       .  A
C1168      C1169   1.412       .  A
C1169      C1170   1.390       .  A
C1169      F1176   1.356       .  S
C1170      H1175   1.083       .  S
C1170      C1171   1.394       .  A
C1171      C1172   1.410       .  A
C1172      F1173   1.357       .  S
C1177      H1184   1.080       .  S
C1177      C1178   1.418       .  A
C1177      C1182   1.412       .  A
C1178      C1179   1.424       .  A
C1179      C1180   1.388       .  A
C1179      F1186   1.355   1_655  S
C1180      H1185   1.085       .  S
C1180      C1181   1.394       .  A
C1181      C1182   1.404       .  A
C1182      F1183   1.357       .  S
C1187      H1194   1.083       .  S
C1187      C1188   1.401       .  A
C1187      C1192   1.404       .  A
C1188      C1189   1.410       .  A
C1189      C1190   1.390       .  A
C1189      F1196   1.358       .  S
C1190      H1195   1.083       .  S
C1190      C1191   1.398       .  A
C1191      C1192   1.409       .  A
C1192      F1193   1.357       .  S
