geometry optimzed in LAMMPS
_audit_creation_date              2020-11-30 
_audit_creation_method            'lammps2cif' 
_symmetry_space_group_name_H-M    'P1' 
_symmetry_Int_Tables_number       1 
_symmetry_cell_setting            triclinic 
loop_ 
_symmetry_equiv_pos_as_xyz 
  x,y,z 
_cell_length_a                    25.31765168 
_cell_length_b                    25.334883444541575 
_cell_length_c                    35.681787267396146 
_cell_angle_alpha                 93.28261898002629 
_cell_angle_beta                  88.68140621388136 
_cell_angle_gamma                 89.5722327464885 
loop_ 
_atom_site_label 
_atom_site_type_symbol 
_atom_site_fract_x 
_atom_site_fract_y 
_atom_site_fract_z 
_atom_site_charge 
N1          N  0.23290942  0.05254292  0.33133458    -0.01800
C2          C  0.18242060  0.06616926  0.32090552     0.00700
C3          C  0.16061599  0.42386299  0.34988691    -0.22100
C4          C  0.19415223  0.42125690  0.37947923    -0.22400
C5          C  0.23571179  0.38934124  0.36684139     0.00600
H6          H  0.12032541  0.43836075  0.35296719     0.14400
H7          H  0.18504084  0.43432551  0.40832841     0.14500
N8          N  0.09051415  0.02883777  0.32079516    -0.01800
C9          C  0.14249219  0.02427265  0.30825483     0.00700
C10         C  0.16114175  0.29633215  0.30675703    -0.22100
C11         C  0.12705676  0.26900584  0.32906840    -0.22400
C12         C  0.08547198  0.30283484  0.33808342     0.00600
H13         H  0.20150512  0.28374065  0.30043840     0.14400
H14         H  0.13566135  0.23213166  0.34165112     0.14500
O15         O  0.06419913  0.05953044  0.46818130    -0.71300
O16         O  0.31066245  0.07887369  0.40799655    -0.72300
O17         O  0.33159995  0.06421667  0.48631041    -0.60900
O18         O  0.04634911  0.05126863  0.39123422    -0.69300
O19         O  0.02303276  0.26302708  0.37780481    -0.68900
O20         O  0.26028517  0.26746710  0.46716569    -0.60100
O21         O  0.25702684  0.30710842  0.39160986    -0.72600
O22         O  0.02440327  0.22744675  0.45140307    -0.71400
Cu23       Cu  0.00497090  0.07578225  0.43801560     1.04600
Cu24       Cu  0.97287953  0.26702045  0.42167024     1.04300
C25         C  0.05845019  0.25323034  0.47058452     0.94900
C26         C  0.26544822  0.35693519  0.39204698     0.94000
C27         C  0.27127509  0.30247936  0.49298077     0.86200
C28         C  0.05353540  0.30171465  0.37266461     0.92400
N29         N  0.30665268  0.29063467  0.73506767    -0.01800
C30         C  0.25491518  0.29723870  0.74776124     0.00700
C31         C  0.24042268  0.34890636  0.74058628    -0.22100
C32         C  0.27747435  0.36733101  0.71561586    -0.22400
C33         C  0.31622530  0.32902948  0.71145047     0.00600
H34         H  0.20099729  0.36562055  0.74416306     0.14400
H35         H  0.27157205  0.39981118  0.69768520     0.14500
O36         O  0.02724136  0.09153393  0.60075278    -0.71300
O37         O  0.13464525  0.01065531  0.65887246    -0.72300
O38         O  0.12957299  0.05247306  0.58341072    -0.60900
O39         O  0.03427564  0.05404168  0.67419647    -0.69300
O40         O  0.99251415  0.28581225  0.66792878    -0.68900
O41         O  0.06805422  0.23418439  0.57434454    -0.60100
O42         O  0.08807711  0.23689863  0.65259769    -0.72600
O43         O  0.97491143  0.27978042  0.59031346    -0.71400
Cu44       Cu  0.08340346  0.05485616  0.62986448     1.04600
Cu45       Cu  0.02970367  0.25681742  0.62138893     1.04300
C46         C  0.31288286  0.31550816  0.57466039     0.94900
C47         C  0.12115876  0.27167979  0.66298816     0.94000
C48         C  0.09131946  0.26846881  0.55527969     0.86200
C49         C  0.99645940  0.33291799  0.68246307     0.92400
N50         N  0.16310909  0.27242153  0.72569003    -0.01800
C51         C  0.21306004  0.25661417  0.73630641     0.00700
C52         C  0.23194350  0.21808152  0.70980620    -0.22100
C53         C  0.20115662  0.22056013  0.67893524    -0.22400
C54         C  0.16182688  0.25655891  0.68879348     0.00600
H55         H  0.27057708  0.19941724  0.70899524     0.14400
H56         H  0.20850661  0.20076174  0.65159935     0.14500
N57         N  0.24593240  0.30268898  0.52978297    -0.01800
C58         C  0.26298449  0.33169778  0.56022496     0.00700
C59         C  0.22616895  0.32863902  0.58929227    -0.22100
C60         C  0.19714490  0.28480702  0.58008549    -0.22400
C61         C  0.20810200  0.27053223  0.54298660     0.00600
H62         H  0.23079904  0.34403373  0.61802606     0.14400
H63         H  0.17129078  0.26450737  0.59861998     0.14500
N64         N  0.05717958  0.17323627  0.82004887    -0.01800
C65         C  0.04931656  0.12225939  0.80497650     0.00700
C66         C  0.00278707  0.10364378  0.82110077    -0.22100
C67         C  0.98964612  0.13693344  0.85174051    -0.22400
C68         C  0.02481394  0.17785932  0.85147592     0.00600
H69         H  0.98735807  0.06402244  0.81697020     0.14400
H70         H  0.96085334  0.12940891  0.87363805     0.14500
C71         C  0.06335050  0.22063655  0.79664080     0.88100
C72         C  0.10783214  0.21793662  0.76663560    -0.52100
C73         C  0.11473211  0.26392980  0.74834203     0.11000
C74         C  0.07072190  0.30720963  0.75949582     0.22000
C75         C  0.07717034  0.27120567  0.81995324    -0.52800
C76         C  0.07874288  0.31816779  0.80199015     0.11100
C77         C  0.01233391  0.23444895  0.77664987    -0.52400
C78         C  0.01455413  0.27924873  0.75734334     0.11700
H79         H  0.13487121  0.18458859  0.76262872     0.16200
H80         H  0.07665431  0.00693687  0.73647024     0.02000
H81         H  0.09491536  0.26602662  0.84619593     0.16500
H82         H  0.30976103  0.19905335  0.77464753     0.16300
N83         N  0.08518787  0.03199219  0.81498775    -0.01800
C84         C  0.09445855  0.08137346  0.80193040     0.00700
C85         C  0.13916763  0.10054073  0.82043636    -0.22100
C86         C  0.14429380  0.07237442  0.85213452    -0.22400
C87         C  0.10760368  0.03295481  0.84889270     0.00600
H88         H  0.15577090  0.13952301  0.81829368     0.14400
H89         H  0.16654433  0.08406004  0.87673679     0.14500
N90         N  0.96492429  0.28283733  0.23495605    -0.02200
C91         C  0.95880475  0.23268398  0.24732021     0.00700
C92         C  0.91361971  0.21184165  0.23039875    -0.22100
C93         C  0.90064994  0.24351988  0.20184065    -0.22400
C94         C  0.93466731  0.28533239  0.20421831     0.00600
H95         H  0.90020837  0.17150008  0.23117084     0.14400
H96         H  0.87547935  0.23257551  0.17859463     0.14500
O97         O  0.13320431  0.31022512  0.90372558    -0.71300
O98         O  0.05092578  0.23932335  0.98608602    -0.72300
O99         O  0.07336323  0.21337787  0.90438544    -0.60900
O100        O  0.08418569  0.99616162  0.97513639    -0.69300
O101        O  0.00296365  0.01948340  0.95977782    -0.68900
O102        O  0.99924782  0.25465592  0.89078976    -0.60100
O103        O  0.97737204  0.27927597  0.96951128    -0.72600
O104        O  0.05751039  0.34997614  0.89155883    -0.71400
Cu105      Cu  0.09518758  0.27048306  0.94441961     1.04600
Cu106      Cu  0.01533931  0.31384341  0.92964750     1.04300
C107        C  0.08372183  0.00578352  0.88026107     0.94900
C108        C  0.00200598  0.25166060  0.99209718     0.94000
C109        C  0.03215300  0.21653767  0.88423138     0.86200
C110        C  0.04541272  0.02879927  0.97721723     0.92400
N111        N  0.99926803  0.14295920  0.23201973    -0.01800
C112        C  0.00546941  0.19428471  0.24645037     0.00700
C113        C  0.05125632  0.21399200  0.23004529    -0.22100
C114        C  0.06388203  0.18133386  0.19895096    -0.22400
C115        C  0.02919381  0.14001085  0.19954032     0.00600
H116        H  0.06546537  0.25410450  0.23377784     0.14400
H117        H  0.09033745  0.19057513  0.17603611     0.14500
O118        O  0.31041875  0.30290284  0.07055044    -0.71300
O119        O  0.33249057  0.09218334  0.14687575    -0.72300
O120        O  0.36318951  0.05729724  0.06652595    -0.60900
O121        O  0.27823939  0.32852761  0.14503497    -0.69300
O122        O  0.00189114  0.30695516  0.16114646    -0.68900
O123        O  0.04395693  0.05984128  0.06909380    -0.60100
O124        O  0.04941102  0.07461330  0.15001384    -0.72600
O125        O  0.00782928  0.29656053  0.08275416    -0.71400
Cu126      Cu  0.31633729  0.03011234  0.10778109     1.04600
Cu127      Cu  0.02692584  0.01648132  0.11249934     1.04300
C128        C  0.96147764  0.30114161  0.06984535     0.94900
C129        C  0.01527078  0.10698899  0.16524554     0.94000
C130        C  0.00710587  0.08564472  0.05443625     0.86200
C131        C  0.95328806  0.31281056  0.17121455     0.92400
N132        N  0.97205411  0.22953004  0.02170378    -0.01800
C133        C  0.94096298  0.25733212  0.04675272     0.00700
C134        C  0.90130963  0.22551924  0.05997397    -0.22100
C135        C  0.90905621  0.17620058  0.04222241    -0.22400
C136        C  0.95327985  0.18029847  0.01923933     0.00600
H137        H  0.87370680  0.23525088  0.08300145     0.14400
H138        H  0.88699073  0.14098561  0.04749577     0.14500
N139        N  0.01463074  0.10359286  0.01710394    -0.01800
C140        C  0.05048569  0.08345696  0.99113295     0.00700
C141        C  0.04934702  0.11458660  0.96038344    -0.22100
C142        C  0.00348325  0.14350529  0.96387037    -0.22400
C143        C  0.98382301  0.13787457  0.99963386     0.00600
H144        H  0.07068299  0.10694465  0.93390804     0.14400
H145        H  0.98781156  0.16873144  0.94333233     0.14500
C146        C  0.99589079  0.09595981  0.25627590     0.88100
C147        C  0.04408295  0.08981081  0.28086878    -0.52100
C148        C  0.04361258  0.04572143  0.30097373     0.11000
C149        C  0.98918392  0.34055059  0.29739965     0.22000
C150        C  0.99408450  0.04213593  0.23392395    -0.52800
C151        C  0.98574593  0.33093332  0.25453530     0.11100
C152        C  0.28904401  0.09878362  0.28650691    -0.52400
C153        C  0.27902405  0.05453400  0.30588808     0.11700
H154        H  0.07764786  0.11619028  0.28032650     0.16200
H155        H  0.98476290  0.30357572  0.31228612     0.02000
H156        H  0.99634108  0.03996626  0.20493250     0.16500
H157        H  0.26502514  0.13440240  0.29040073     0.16300
N158        N  0.11959930  0.25081645  0.52157085    -0.01800
C159        C  0.09820801  0.22606986  0.49135284     0.00700
C160        C  0.13584584  0.19382906  0.47278829    -0.22100
C161        C  0.18244680  0.20132846  0.49171037    -0.22400
C162        C  0.17116793  0.23856137  0.52061131     0.00600
H163        H  0.13165139  0.17283974  0.44581765     0.14400
H164        H  0.22054676  0.18415990  0.48366105     0.14500
N165        N  0.23125379  0.37511289  0.32990973    -0.01800
C166        C  0.18055036  0.38956655  0.32097022     0.00700
C167        C  0.15861799  0.74939247  0.34646431    -0.22100
C168        C  0.19032708  0.75023697  0.37724519    -0.22400
C169        C  0.23549822  0.72277476  0.36610055     0.00600
H170        H  0.11722104  0.76044734  0.34796541     0.14400
H171        H  0.17865218  0.76327925  0.40566054     0.14500
N172        N  0.09044159  0.34777578  0.32015843    -0.01800
C173        C  0.14179908  0.34801024  0.30629335     0.00700
C174        C  0.17227239  0.62323095  0.30171431    -0.22100
C175        C  0.13769240  0.59301748  0.32163180    -0.22400
C176        C  0.09335493  0.62387992  0.32932988     0.00600
H177        H  0.21392590  0.61376295  0.29824818     0.14400
H178        H  0.14843335  0.55762856  0.33541598     0.14500
O179        O  0.06065283  0.30358916  0.47079140    -0.71300
O180        O  0.30011775  0.37820930  0.41320204    -0.72300
O181        O  0.30653584  0.33687868  0.48675819    -0.60900
O182        O  0.05557006  0.34110584  0.39675975    -0.69300
O183        O  0.03686616  0.59242859  0.37775598    -0.68900
O184        O  0.27513504  0.61847961  0.47277129    -0.60100
O185        O  0.26491373  0.64648609  0.39510968    -0.72600
O186        O  0.04778919  0.56839825  0.45491281    -0.71400
Cu187      Cu  0.01050375  0.34801659  0.44413534     1.04600
Cu188      Cu  0.99596742  0.60816181  0.42608144     1.04300
C189        C  0.08465922  0.59457367  0.47063377     0.94900
C190        C  0.26936425  0.69639063  0.39224257     0.94000
C191        C  0.28449040  0.65748304  0.49594880     0.86200
C192        C  0.06927474  0.62709472  0.36709836     0.92400
N193        N  0.31157372  0.61954452  0.73564538    -0.01800
C194        C  0.25866933  0.62153514  0.74645654     0.00700
C195        C  0.24226781  0.67399894  0.74440268    -0.22100
C196        C  0.27968021  0.69894225  0.72315387    -0.22400
C197        C  0.32025255  0.66310155  0.71649875     0.00600
H198        H  0.20195466  0.68834028  0.74796888     0.14400
H199        H  0.27315906  0.73460488  0.70851906     0.14500
O200        O  0.99748005  0.36410790  0.58774350    -0.71300
O201        O  0.12011665  0.31817111  0.65022978    -0.72300
O202        O  0.09507155  0.31653261  0.56830374    -0.60900
O203        O  0.02231918  0.36788307  0.66574582    -0.69300
O204        O  0.99205916  0.63492707  0.66675875    -0.68900
O205        O  0.06584531  0.59030250  0.57021406    -0.60100
O206        O  0.08296103  0.57602275  0.64743810    -0.72600
O207        O  0.97531570  0.65071357  0.58915845    -0.71400
Cu208      Cu  0.06075712  0.34480781  0.61762270     1.04600
Cu209      Cu  0.02694293  0.61081170  0.61820209     1.04300
C210        C  0.32761357  0.67321604  0.57784265     0.94900
C211        C  0.12062485  0.60383253  0.66078764     0.94000
C212        C  0.10061613  0.62085694  0.55722626     0.86200
C213        C  0.00285583  0.67762330  0.68571133     0.92400
N214        N  0.16795750  0.59706251  0.72029233    -0.01800
C215        C  0.21942415  0.58284147  0.72815189     0.00700
C216        C  0.23898404  0.55034427  0.69813321    -0.22100
C217        C  0.20266141  0.55049642  0.67002913    -0.22400
C218        C  0.16044575  0.58025785  0.68420652     0.00600
H219        H  0.27931925  0.53635480  0.69407761     0.14400
H220        H  0.20886027  0.53535620  0.64126911     0.14500
N221        N  0.26011524  0.66160070  0.53315734    -0.01800
C222        C  0.27929079  0.69214948  0.56221042     0.00700
C223        C  0.24232620  0.69456535  0.59144172    -0.22100
C224        C  0.21040574  0.65209854  0.58448709    -0.22400
C225        C  0.22052857  0.63330895  0.54827798     0.00600
H226        H  0.24837847  0.71186951  0.61952186     0.14400
H227        H  0.18566337  0.63374881  0.60457442     0.14500
N228        N  0.06661056  0.51044784  0.82260159    -0.01800
C229        C  0.05888261  0.45808161  0.81028164     0.00700
C230        C  0.01337606  0.44060590  0.82831451    -0.22100
C231        C  0.99970202  0.47764929  0.85672587    -0.22400
C232        C  0.03437858  0.51871969  0.85370659     0.00600
H233        H  0.99867482  0.40052992  0.82682631     0.14400
H234        H  0.97121234  0.47260404  0.87928626     0.14500
C235        C  0.07349587  0.55576863  0.79743904     0.88100
C236        C  0.11550206  0.54888656  0.76608000    -0.52100
C237        C  0.12271089  0.59312147  0.74609123     0.11000
C238        C  0.08154644  0.63884028  0.75677760     0.22000
C239        C  0.09120862  0.60705081  0.81848269    -0.52800
C240        C  0.09253438  0.65197586  0.79845042     0.11100
C241        C  0.02164133  0.57105069  0.77883876    -0.52400
C242        C  0.02443348  0.61407294  0.75742014     0.11700
H243        H  0.14064009  0.51408883  0.76198019     0.16200
H244        H  0.07445357  0.34343251  0.74361940     0.02000
H245        H  0.11043666  0.60427029  0.84458624     0.16500
H246        H  0.31811841  0.52751438  0.77539620     0.16300
N247        N  0.09872629  0.36781003  0.82043692    -0.01800
C248        C  0.10471836  0.41797131  0.80754316     0.00700
C249        C  0.15074329  0.43826531  0.82351880    -0.22100
C250        C  0.16341146  0.40750292  0.85274624    -0.22400
C251        C  0.12878236  0.36611766  0.85131186     0.00600
H252        H  0.16472941  0.47834262  0.82180872     0.14400
H253        H  0.18845406  0.41926578  0.87588711     0.14500
N254        N  0.96110362  0.61195770  0.23834128    -0.02200
C255        C  0.95824117  0.56247344  0.25216454     0.00700
C256        C  0.91412654  0.53796864  0.23621413    -0.22100
C257        C  0.89832334  0.56741114  0.20718410    -0.22400
C258        C  0.93004877  0.61104558  0.20791741     0.00600
H259        H  0.90339871  0.49695328  0.23788722     0.14400
H260        H  0.87354983  0.55357452  0.18439035     0.14500
O261        O  0.14439293  0.65645132  0.90032374    -0.71300
O262        O  0.06511023  0.58749551  0.98336433    -0.72300
O263        O  0.08547257  0.56038615  0.90287190    -0.60900
O264        O  0.11305356  0.32885071  0.98141324    -0.69300
O265        O  0.03656501  0.36679882  0.96838639    -0.68900
O266        O  0.00984906  0.59907358  0.88969258    -0.60100
O267        O  0.98925653  0.62350486  0.96802008    -0.72600
O268        O  0.06832939  0.69489937  0.88720959    -0.71400
Cu269      Cu  0.10727670  0.61911491  0.94158965     1.04600
Cu270      Cu  0.02630943  0.66028644  0.92706342     1.04300
C271        C  0.10682778  0.34275242  0.88510414     0.94900
C272        C  0.01526747  0.59368158  0.98862520     0.94000
C273        C  0.04281613  0.56081906  0.88408361     0.86200
C274        C  0.07989202  0.36663368  0.98611217     0.92400
N275        N  0.00489046  0.47591723  0.23889587    -0.01800
C276        C  0.00717935  0.52750622  0.25319490     0.00700
C277        C  0.05308879  0.54957329  0.23869398    -0.22100
C278        C  0.07134113  0.51639657  0.20925206    -0.22400
C279        C  0.03963573  0.47266378  0.20883357     0.00600
H280        H  0.06456095  0.59055473  0.24229698     0.14400
H281        H  0.09934724  0.52665348  0.18753417     0.14500
O282        O  0.32331543  0.62462275  0.07581279    -0.71300
O283        O  0.33688312  0.42505729  0.14711032    -0.72300
O284        O  0.37091259  0.39354472  0.06578844    -0.60900
O285        O  0.28418890  0.65487838  0.14706153    -0.69300
O286        O  0.99590050  0.62645084  0.16215828    -0.68900
O287        O  0.06622764  0.38852118  0.07902018    -0.60100
O288        O  0.06072369  0.40363551  0.16104474    -0.72600
O289        O  0.00428211  0.61573124  0.08257944    -0.71400
Cu290      Cu  0.32173537  0.36517292  0.10628172     1.04600
Cu291      Cu  0.03701135  0.34778923  0.12115727     1.04300
C292        C  0.95897998  0.61934949  0.06785679     0.94900
C293        C  0.02872713  0.44020672  0.17365152     0.94000
C294        C  0.03709640  0.42112336  0.06275679     0.86200
C295        C  0.94805526  0.63494890  0.17341857     0.92400
N296        N  0.98729000  0.56301382  0.01523521    -0.01800
C297        C  0.94698305  0.58062268  0.03794443     0.00700
C298        C  0.91546792  0.53863806  0.04657654    -0.22100
C299        C  0.93965263  0.49371554  0.03049886    -0.22400
C300        C  0.98611761  0.51002083  0.01405595     0.00600
H301        H  0.88339604  0.53931893  0.06721825     0.14400
H302        H  0.92676138  0.45355966  0.03348101     0.14500
N303        N  0.05489316  0.44044198  0.02719302    -0.01800
C304        C  0.09368909  0.41658349  0.00529555     0.00700
C305        C  0.10798479  0.44965668  0.97730648    -0.22100
C306        C  0.06587274  0.48309933  0.97474480    -0.22400
C307        C  0.03400945  0.47780503  0.00595393     0.00600
H308        H  0.13439977  0.43929232  0.95360270     0.14400
H309        H  0.05624712  0.50388861  0.95040080     0.14500
C310        C  0.99779983  0.42850807  0.26211675     0.88100
C311        C  0.04649440  0.41632890  0.28499304    -0.52100
C312        C  0.04370584  0.37059052  0.30325735     0.11000
C313        C  0.99387357  0.67183725  0.29698913     0.22000
C314        C  0.98913414  0.37817824  0.23754518    -0.52800
C315        C  0.98371363  0.66104284  0.25501983     0.11100
C316        C  0.28686638  0.42640550  0.28675768    -0.52400
C317        C  0.27777562  0.38078874  0.30512691     0.11700
H318        H  0.08184564  0.44028926  0.28456060     0.16200
H319        H  0.98884822  0.63606661  0.31317224     0.02000
H320        H  0.97541530  0.38377666  0.21057595     0.16500
H321        H  0.26182787  0.46120859  0.29121986     0.16300
N322        N  0.13490641  0.60102993  0.52660209    -0.01800
C323        C  0.11955645  0.57072625  0.49663371     0.00700
C324        C  0.16112872  0.53887670  0.48306111    -0.22100
C325        C  0.20420122  0.55285705  0.50424297    -0.22400
C326        C  0.18728838  0.59370030  0.52904539     0.00600
H327        H  0.16240852  0.51449455  0.45713124     0.14400
H328        H  0.24415737  0.53811784  0.49958339     0.14500
N329        N  0.23427639  0.70712457  0.32927892    -0.01800
C330        C  0.18352446  0.71741184  0.31821032     0.00700
C331        C  0.16312181  0.10577321  0.34640869    -0.22100
C332        C  0.19734938  0.10959958  0.37575632    -0.22400
C333        C  0.23826536  0.07515286  0.36640047     0.00600
H334        H  0.12323064  0.12157634  0.34795647     0.14400
H335        H  0.18995641  0.13011986  0.40273741     0.14500
N336        N  0.09757313  0.66924437  0.31148506    -0.01800
C337        C  0.14986231  0.67356676  0.30072242     0.00700
C338        C  0.15946460  0.97349180  0.31594788    -0.22100
C339        C  0.12412705  0.95475251  0.34185943    -0.22400
C340        C  0.08391566  0.99146572  0.34514074     0.00600
H341        H  0.19947171  0.95831642  0.31219256     0.14400
H342        H  0.13118795  0.92285562  0.36008791     0.14500
O343        O  0.09184438  0.64337464  0.46501832    -0.71300
O344        O  0.30400388  0.72265313  0.41054442    -0.72300
O345        O  0.31718375  0.69282809  0.48667296    -0.60900
O346        O  0.08001829  0.66772157  0.38839222    -0.69300
O347        O  0.02857955  0.96562836  0.39420095    -0.68900
O348        O  0.28289189  0.99166982  0.48542162    -0.60100
O349        O  0.26356650  0.00520996  0.40408573    -0.72600
O350        O  0.04714253  0.97365515  0.47022037    -0.71400
Cu351      Cu  0.04353029  0.68792005  0.43725907     1.04600
Cu352      Cu  0.98381561  0.98459533  0.43802816     1.04300
C353        C  0.07712860  0.01330249  0.47671294     0.94900
C354        C  0.27230620  0.05236501  0.39437562     0.94000
C355        C  0.29917755  0.03434591  0.50249079     0.86200
C356        C  0.05142424  0.00296571  0.37851576     0.92400
N357        N  0.30942580  0.95595214  0.73704027    -0.01800
C358        C  0.25703753  0.95844792  0.74860580     0.00700
C359        C  0.24168941  0.01149973  0.74851588    -0.22100
C360        C  0.27944208  0.03718132  0.72798793    -0.22400
C361        C  0.31926796  0.00089805  0.71997160     0.00600
H362        H  0.20176315  0.02654725  0.75313137     0.14400
H363        H  0.27392382  0.07442892  0.71511598     0.14500
O364        O  0.01790743  0.72719548  0.59401102    -0.71300
O365        O  0.12462681  0.65270313  0.65403453    -0.72300
O366        O  0.10844843  0.66634100  0.57375115    -0.60900
O367        O  0.03372678  0.71180638  0.67232878    -0.69300
O368        O  0.00704054  0.97428761  0.65427402    -0.68900
O369        O  0.09720373  0.97681338  0.56016172    -0.60100
O370        O  0.10644455  0.93425363  0.63336284    -0.72600
O371        O  0.99826319  0.01248202  0.58089403    -0.71400
Cu372      Cu  0.07290162  0.69225037  0.62352174     1.04600
Cu373      Cu  0.05135914  0.97186021  0.60637454     1.04300
C374        C  0.33999440  0.03716507  0.58595551     0.94900
C375        C  0.13461579  0.95988120  0.65703037     0.94000
C376        C  0.12515077  0.01797316  0.55617562     0.86200
C377        C  0.00681944  0.01304961  0.67899375     0.92400
N378        N  0.16786108  0.93918408  0.72010533    -0.01800
C379        C  0.21717523  0.92109424  0.73003819     0.00700
C380        C  0.23807930  0.88906862  0.70019205    -0.22100
C381        C  0.20803470  0.89731593  0.66955717    -0.22400
C382        C  0.16732416  0.93023452  0.68224728     0.00600
H383        H  0.27747263  0.87204013  0.69819725     0.14400
H384        H  0.21825119  0.88565688  0.64062313     0.14500
N385        N  0.27526938  0.05340999  0.53759442    -0.01800
C386        C  0.30084060  0.06992999  0.56875470     0.00700
C387        C  0.26981256  0.10611138  0.59010197    -0.22100
C388        C  0.22323943  0.11136415  0.57128325    -0.22400
C389        C  0.22805513  0.07773107  0.53955603     0.00600
H390        H  0.27779719  0.12262613  0.61803504     0.14400
H391        H  0.18912188  0.13495001  0.58064242     0.14500
N392        N  0.06082416  0.83528406  0.81156592    -0.01800
C393        C  0.06223419  0.78355465  0.79721582     0.00700
C394        C  0.01730617  0.75849276  0.81064920    -0.22100
C395        C  0.99605053  0.79017318  0.83976018    -0.22400
C396        C  0.02520411  0.83562327  0.84113492     0.00600
H397        H  0.00823646  0.71697692  0.80658038     0.14400
H398        H  0.96699876  0.77853967  0.86036905     0.14500
C399        C  0.06608087  0.88280979  0.78807268     0.88100
C400        C  0.11286765  0.88258548  0.75980597    -0.52100
C401        C  0.11909481  0.92890958  0.74184255     0.11000
C402        C  0.07278004  0.97011252  0.75157061     0.22000
C403        C  0.07519468  0.93351592  0.81214701    -0.52800
C404        C  0.07591495  0.98058004  0.79446771     0.11100
C405        C  0.01633135  0.89444552  0.76562211    -0.52400
C406        C  0.01835350  0.93986945  0.74661010     0.11700
H407        H  0.14101368  0.85018251  0.75602703     0.16200
H408        H  0.08605540  0.67359294  0.73947592     0.02000
H409        H  0.08774711  0.92930024  0.84000264     0.16500
H410        H  0.31142181  0.86284809  0.77543095     0.16300
N411        N  0.11270572  0.70273566  0.81397221    -0.01800
C412        C  0.11314907  0.75171147  0.79929946     0.00700
C413        C  0.15480116  0.77935022  0.81610756    -0.22100
C414        C  0.16966306  0.75250554  0.84671051    -0.22400
C415        C  0.14040034  0.70712581  0.84596008     0.00600
H416        H  0.16327693  0.82081481  0.81382108     0.14400
H417        H  0.19110314  0.76935218  0.87034991     0.14500
N418        N  0.97848225  0.94510056  0.23421716    -0.02200
C419        C  0.97249679  0.89658308  0.24979668     0.00700
C420        C  0.92528566  0.87523166  0.23648221    -0.22100
C421        C  0.91067700  0.90300145  0.20632318    -0.22400
C422        C  0.94588656  0.94359502  0.20427686     0.00600
H423        H  0.91069379  0.83602059  0.24091115     0.14400
H424        H  0.88208228  0.89075438  0.18555936     0.14500
O425        O  0.11306015  0.97859578  0.90030871    -0.71300
O426        O  0.04199678  0.89354821  0.97641268    -0.72300
O427        O  0.06844625  0.87526235  0.89552293    -0.60900
O428        O  0.12403355  0.67913454  0.97800832    -0.69300
O429        O  0.04732245  0.71660930  0.96520227    -0.68900
O430        O  0.98701121  0.90180872  0.88409722    -0.60100
O431        O  0.96198222  0.92240829  0.96519020    -0.72600
O432        O  0.03310844  0.00401876  0.88375914    -0.71400
Cu433      Cu  0.07938000  0.93369103  0.93751019     1.04600
Cu434      Cu  0.99345645  0.96234491  0.92259390     1.04300
C435        C  0.11765221  0.68680410  0.88048251     0.94900
C436        C  0.99387913  0.90001337  0.98673678     0.94000
C437        C  0.02675073  0.87206894  0.87552001     0.86200
C438        C  0.08976202  0.71581095  0.98396269     0.92400
N439        N  0.00956125  0.80417319  0.23481044    -0.01800
C440        C  0.01800014  0.85615378  0.24754884     0.00700
C441        C  0.06321953  0.87358949  0.22908812    -0.22100
C442        C  0.07459672  0.83787658  0.19941881    -0.22400
C443        C  0.03956012  0.79718145  0.20255914     0.00600
H444        H  0.07813847  0.91359326  0.23077760     0.14400
H445        H  0.10097882  0.84418478  0.17582762     0.14500
O446        O  0.30573685  0.96588128  0.07359811    -0.71300
O447        O  0.33305982  0.75645691  0.14725898    -0.72300
O448        O  0.37059342  0.72096743  0.06798389    -0.60900
O449        O  0.27416337  0.99515118  0.14754816    -0.69300
O450        O  0.00319849  0.97133115  0.15525097    -0.68900
O451        O  0.06278766  0.70684105  0.08052787    -0.60100
O452        O  0.05628307  0.72117715  0.16047584    -0.72600
O453        O  0.00016732  0.96352786  0.07532714    -0.71400
Cu454      Cu  0.32511769  0.69151150  0.10849669     1.04600
Cu455      Cu  0.03228833  0.66565729  0.12163154     1.04300
C456        C  0.95242687  0.96037922  0.06463021     0.94900
C457        C  0.02558910  0.75985540  0.17053979     0.94000
C458        C  0.03266534  0.73781973  0.06371408     0.86200
C459        C  0.95630164  0.97233688  0.16974916     0.92400
N460        N  0.97661711  0.88500427  0.02364959    -0.01800
C461        C  0.93793609  0.90997388  0.04531102     0.00700
C462        C  0.92480513  0.87779335  0.07414060    -0.22100
C463        C  0.96843141  0.84643231  0.07800495    -0.22400
C464        C  0.00022209  0.85122405  0.04647339     0.00600
H465        H  0.89776031  0.88825119  0.09746581     0.14400
H466        H  0.97835072  0.82795293  0.10341894     0.14500
N467        N  0.05431643  0.77044391  0.03593490    -0.01800
C468        C  0.09637065  0.75719227  0.01358554     0.00700
C469        C  0.12507449  0.80210171  0.00712729    -0.22100
C470        C  0.09759150  0.84405248  0.02498587    -0.22400
C471        C  0.05155586  0.82328630  0.03951912     0.00600
H472        H  0.15774575  0.80525373  0.98729851     0.14400
H473        H  0.10728141  0.88542312  0.02351833     0.14500
C474        C  0.00302012  0.75758815  0.25910619     0.88100
C475        C  0.05442753  0.74149149  0.27823924    -0.52100
C476        C  0.05085465  0.69677928  0.29797284     0.11000
C477        C  0.99071020  0.01154309  0.29604355     0.22000
C478        C  0.98602655  0.70723327  0.23653428    -0.52800
C479        C  0.99059773  0.99709948  0.25334973     0.11100
C480        C  0.28759688  0.76096440  0.28726825    -0.52400
C481        C  0.28148531  0.71548111  0.30605759     0.11700
H482        H  0.09144718  0.76195953  0.27419583     0.16200
H483        H  0.98813565  0.97617235  0.31291639     0.02000
H484        H  0.96574209  0.71214681  0.21128833     0.16500
H485        H  0.26013473  0.79402206  0.29100814     0.16300
N486        N  0.14903850  0.02730882  0.52018308    -0.01800
C487        C  0.13199588  0.00799820  0.48646231     0.00700
C488        C  0.16520855  0.02578862  0.45851672    -0.22100
C489        C  0.19688091  0.06327464  0.47509507    -0.22400
C490        C  0.18719635  0.06266692  0.51310074     0.00600
H491        H  0.15935192  0.02090585  0.42852344     0.14400
H492        H  0.22611360  0.08659530  0.46118426     0.14500
N493        N  0.56325972  0.02587291  0.32846207    -0.01800
C494        C  0.51236544  0.03974191  0.31906627     0.00700
C495        C  0.48915630  0.40356493  0.35180151    -0.22100
C496        C  0.52081534  0.39704691  0.38195793    -0.22400
C497        C  0.56357849  0.36768993  0.36832570     0.00600
H498        H  0.44857328  0.41729953  0.35460377     0.14400
H499        H  0.51040479  0.40675517  0.41114920     0.14500
N500        N  0.42049975  0.00195255  0.31432445    -0.01800
C501        C  0.47331825  0.99869548  0.30391082     0.00700
C502        C  0.49217348  0.28142847  0.30299410    -0.22100
C503        C  0.45510907  0.25259140  0.32174798    -0.22400
C504        C  0.41304930  0.28619185  0.33003520     0.00600
H505        H  0.53300500  0.26890533  0.29909603     0.14400
H506        H  0.46235136  0.21501449  0.33378667     0.14500
O507        O  0.41342135  0.99980632  0.46540129    -0.71300
O508        O  0.64234271  0.05690482  0.40246968    -0.72300
O509        O  0.66271881  0.04858608  0.47990361    -0.60900
O510        O  0.39626158  0.01383759  0.38904264    -0.69300
O511        O  0.34910440  0.24960985  0.37146832    -0.68900
O512        O  0.59843804  0.24384684  0.46381021    -0.60100
O513        O  0.59532171  0.28620327  0.38952186    -0.72600
O514        O  0.35383687  0.21082514  0.44506356    -0.71400
Cu515      Cu  0.36453396  0.04144175  0.43735839     1.04600
Cu516      Cu  0.30289610  0.25631703  0.41833264     1.04300
C517        C  0.39181499  0.23269673  0.46282529     0.94900
C518        C  0.59709145  0.33688289  0.39203658     0.94000
C519        C  0.60311017  0.27879511  0.49068788     0.86200
C520        C  0.38318610  0.28529647  0.36575437     0.92400
N521        N  0.63519134  0.28835480  0.73505860    -0.01800
C522        C  0.58237657  0.28713836  0.74524800     0.00700
C523        C  0.56140917  0.33623955  0.73740895    -0.22100
C524        C  0.59712785  0.35952163  0.71376579    -0.22400
C525        C  0.64081768  0.32679558  0.71110958     0.00600
H526        H  0.51994653  0.34711780  0.73916625     0.14400
H527        H  0.58768169  0.39029080  0.69511713     0.14500
O528        O  0.37977044  0.05851921  0.60167719    -0.71300
O529        O  0.47537283  0.96757841  0.65812470    -0.72300
O530        O  0.46889784  0.99547341  0.58064488    -0.60900
O531        O  0.38539083  0.02951324  0.67673650    -0.69300
O532        O  0.33423678  0.26748733  0.66134775    -0.68900
O533        O  0.40072118  0.20946205  0.56563011    -0.60100
O534        O  0.42424471  0.20762637  0.64452562    -0.72600
O535        O  0.31414411  0.26794993  0.58457443    -0.71400
Cu536      Cu  0.42966460  0.01493155  0.62956831     1.04600
Cu537      Cu  0.36696800  0.23566491  0.61399456     1.04300
C538        C  0.63708879  0.29773845  0.57369451     0.94900
C539        C  0.45982162  0.23961006  0.65562441     0.94000
C540        C  0.42802552  0.24089540  0.54660692     0.86200
C541        C  0.34235317  0.31422999  0.67533284     0.92400
N542        N  0.49733373  0.24904374  0.71922265    -0.01800
C543        C  0.54814358  0.24109606  0.73148633     0.00700
C544        C  0.57311519  0.20339318  0.70701849    -0.22100
C545        C  0.54144974  0.19497388  0.67662239    -0.22400
C546        C  0.49647220  0.22445712  0.68444949     0.00600
H547        H  0.61434138  0.19185643  0.70691797     0.14400
H548        H  0.55259761  0.17446696  0.65016562     0.14500
N549        N  0.57528411  0.27303969  0.52599850    -0.01800
C550        C  0.58509713  0.30183538  0.55831638     0.00700
C551        C  0.55011402  0.28641145  0.58580491    -0.22100
C552        C  0.53169039  0.23801074  0.57322419    -0.22400
C553        C  0.54382659  0.23238761  0.53545323     0.00600
H554        H  0.55141945  0.29924161  0.61526430     0.14400
H555        H  0.50725892  0.21200272  0.58900593     0.14500
N556        N  0.39104645  0.15807979  0.81679047    -0.01800
C557        C  0.38568242  0.10583704  0.80410674     0.00700
C558        C  0.34133815  0.08612508  0.82232390    -0.22100
C559        C  0.32850111  0.12100971  0.85223746    -0.22400
C560        C  0.36141077  0.16352570  0.84933125     0.00600
H561        H  0.32867649  0.04533916  0.82067249     0.14400
H562        H  0.30376956  0.11246406  0.87624363     0.14500
C563        C  0.39721933  0.20460814  0.79234965     0.88100
C564        C  0.44153418  0.19966143  0.76234916    -0.52100
C565        C  0.45014529  0.24462671  0.74346150     0.11000
C566        C  0.40866624  0.29007258  0.75430395     0.22000
C567        C  0.41179220  0.25542089  0.81503687    -0.52800
C568        C  0.41606032  0.30149145  0.79670063     0.11100
C569        C  0.34671950  0.22007091  0.77196186    -0.52400
C570        C  0.35151214  0.26475570  0.75222392     0.11700
H571        H  0.46672117  0.16497677  0.75794333     0.16200
H572        H  0.41772208  0.98999250  0.74105868     0.02000
H573        H  0.42443066  0.25190068  0.84238445     0.16500
H574        H  0.64306703  0.19782966  0.77321808     0.16300
N575        N  0.43011644  0.01953157  0.81792708    -0.01800
C576        C  0.43355491  0.06865360  0.80324809     0.00700
C577        C  0.47954027  0.09199853  0.81720746    -0.22100
C578        C  0.49689212  0.06265511  0.84585349    -0.22400
C579        C  0.46418986  0.01989983  0.84676958     0.00600
H580        H  0.49151499  0.13246620  0.81434947     0.14400
H581        H  0.52464651  0.07552421  0.86704520     0.14500
N582        N  0.29677935  0.27592924  0.23227036    -0.02200
C583        C  0.29368919  0.22531551  0.24437026     0.00700
C584        C  0.25310187  0.20080168  0.22413321    -0.22100
C585        C  0.24374690  0.23036995  0.19362748    -0.22400
C586        C  0.27383908  0.27499658  0.19838491     0.00600
H587        H  0.24275510  0.15943954  0.22449046     0.14400
H588        H  0.22534297  0.21598745  0.16797515     0.14500
O589        O  0.48655634  0.28731110  0.89053477    -0.71300
O590        O  0.43249942  0.20302634  0.97516037    -0.72300
O591        O  0.42647904  0.19086091  0.89395446    -0.60900
O592        O  0.48895704  0.97074513  0.97225040    -0.69300
O593        O  0.41009431  0.01002893  0.97502950    -0.68900
O594        O  0.34958392  0.23360955  0.89754760    -0.60100
O595        O  0.35694361  0.24732403  0.97896296    -0.72600
O596        O  0.40924954  0.32957018  0.89250691    -0.71400
Cu597      Cu  0.46120629  0.24223250  0.93209713     1.04600
Cu598      Cu  0.37949623  0.28881421  0.93519398     1.04300
C599        C  0.45206591  0.99285228  0.88139775     0.94900
C600        C  0.38940014  0.21527353  0.99277732     0.94000
C601        C  0.37895037  0.19628373  0.88287143     0.86200
C602        C  0.45808422  0.00785092  0.98512121     0.92400
N603        N  0.34181821  0.13803769  0.23241942    -0.01800
C604        C  0.34338545  0.19071905  0.24503168     0.00700
C605        C  0.38753441  0.21293553  0.22809065    -0.22100
C606        C  0.40447547  0.17857405  0.19895661    -0.22400
C607        C  0.37451421  0.13390916  0.20127708     0.00600
H608        H  0.39833625  0.25424945  0.23029989     0.14400
H609        H  0.43197564  0.18734794  0.17652994     0.14500
O610        O  0.60673971  0.31290322  0.07719522    -0.71300
O611        O  0.63186546  0.07297151  0.14805121    -0.72300
O612        O  0.64976423  0.04858856  0.06740251    -0.60900
O613        O  0.59105439  0.32796461  0.15571679    -0.69300
O614        O  0.35207407  0.29246048  0.16475124    -0.68900
O615        O  0.43787195  0.02914556  0.09022468    -0.60100
O616        O  0.40567818  0.05577573  0.16719657    -0.72600
O617        O  0.38665639  0.27214462  0.09058751    -0.71400
Cu618      Cu  0.61212453  0.01316217  0.10925752     1.04600
Cu619      Cu  0.39637121  0.99495098  0.12983790     1.04300
C620        C  0.34597593  0.26719585  0.07029315     0.94900
C621        C  0.37104844  0.09245361  0.16997867     0.94000
C622        C  0.41343997  0.05083777  0.06425456     0.86200
C623        C  0.30186412  0.29827692  0.16677941     0.92400
N624        N  0.37868621  0.19587068  0.02941541    -0.01800
C625        C  0.33916418  0.21441525  0.05309622     0.00700
C626        C  0.33592959  0.18169964  0.08288651    -0.22100
C627        C  0.38472258  0.15814824  0.08387071    -0.22400
C628        C  0.40958593  0.16475480  0.04982535     0.00600
H629        H  0.31041343  0.18789254  0.10762216     0.14400
H630        H  0.40034033  0.13738986  0.10675933     0.14500
N631        N  0.44342721  0.07529462  0.03554245    -0.01800
C632        C  0.47694337  0.05124083  0.01005161     0.00700
C633        C  0.51072646  0.08880288  0.99633344    -0.22100
C634        C  0.49482973  0.13732752  0.01279564    -0.22400
C635        C  0.45103287  0.12752077  0.03510730     0.00600
H636        H  0.53858000  0.08299802  0.97295908     0.14400
H637        H  0.51098466  0.17536590  0.00664516     0.14500
C638        C  0.33337789  0.09183113  0.25671691     0.88100
C639        C  0.38328274  0.07475571  0.27760979    -0.52100
C640        C  0.37671892  0.03068758  0.29789025     0.11000
C641        C  0.31937412  0.33565826  0.29426046     0.22000
C642        C  0.31658484  0.04168227  0.23416008    -0.52800
C643        C  0.31354652  0.32578294  0.25157922     0.11100
C644        C  0.61394845  0.08034699  0.28549985    -0.52400
C645        C  0.60969536  0.03500401  0.30470110     0.11700
H646        H  0.42114337  0.09409127  0.27467389     0.16200
H647        H  0.31251534  0.29937801  0.30951898     0.02000
H648        H  0.30231210  0.04586023  0.20660252     0.16500
H649        H  0.58660851  0.11335998  0.29013259     0.16300
N650        N  0.45430077  0.22044064  0.51262458    -0.01800
C651        C  0.43151043  0.20143027  0.48095115     0.00700
C652        C  0.46828148  0.17154957  0.45950486    -0.22100
C653        C  0.51548849  0.17428200  0.47831111    -0.22400
C654        C  0.50560663  0.20648894  0.51029506     0.00600
H655        H  0.46328925  0.15616372  0.43094067     0.14400
H656        H  0.55307935  0.15775347  0.46829715     0.14500
N657        N  0.56192404  0.35884904  0.33067941    -0.01800
C658        C  0.51137242  0.37375217  0.32127318     0.00700
C659        C  0.49669533  0.74754540  0.34591669    -0.22100
C660        C  0.52479915  0.74203907  0.37782084    -0.22400
C661        C  0.56551409  0.70762722  0.36782154     0.00600
H662        H  0.45756332  0.76508147  0.34594751     0.14400
H663        H  0.51368488  0.75721811  0.40588612     0.14500
N664        N  0.42099594  0.33279972  0.31433106    -0.01800
C665        C  0.47368247  0.33346697  0.30333971     0.00700
C666        C  0.49656724  0.62118279  0.30018942    -0.22100
C667        C  0.46088579  0.59399254  0.32143331    -0.22400
C668        C  0.42036946  0.62895280  0.33097479     0.00600
H669        H  0.53679533  0.60767629  0.29451129     0.14400
H670        H  0.46841524  0.55669039  0.33375479     0.14500
O671        O  0.39827594  0.28263868  0.46359433    -0.71300
O672        O  0.62799388  0.36101172  0.41459063    -0.72300
O673        O  0.63440727  0.31764971  0.48695153    -0.60900
O674        O  0.39134476  0.32249662  0.39063212    -0.69300
O675        O  0.36049193  0.59376238  0.37592069    -0.68900
O676        O  0.61043722  0.60368807  0.47486130    -0.60100
O677        O  0.60140340  0.63302923  0.39679977    -0.72600
O678        O  0.37197028  0.56593278  0.45161694    -0.71400
Cu679      Cu  0.35054204  0.33234610  0.43927000     1.04600
Cu680      Cu  0.31618604  0.60353607  0.42357580     1.04300
C681        C  0.40919510  0.59221677  0.46713006     0.94900
C682        C  0.59930905  0.68346477  0.39504472     0.94000
C683        C  0.61297166  0.64135026  0.49999479     0.86200
C684        C  0.39205183  0.63042456  0.36733986     0.92400
N685        N  0.64508211  0.61617293  0.73826212    -0.01800
C686        C  0.59278496  0.61919442  0.75006478     0.00700
C687        C  0.57498006  0.67011461  0.74370396    -0.22100
C688        C  0.61114671  0.69159002  0.71957414    -0.22400
C689        C  0.65200112  0.65555624  0.71531386     0.00600
H690        H  0.53454646  0.68419100  0.74710768     0.14400
H691        H  0.60415257  0.72488402  0.70258002     0.14500
O692        O  0.34989813  0.34777541  0.58182388    -0.71300
O693        O  0.46328331  0.28565241  0.64267573    -0.72300
O694        O  0.43850005  0.28751555  0.56037122    -0.60900
O695        O  0.37249626  0.34592731  0.65866484    -0.69300
O696        O  0.34069231  0.61223932  0.66174954    -0.68900
O697        O  0.41573205  0.56964253  0.56718394    -0.60100
O698        O  0.43290298  0.55701942  0.64584163    -0.72600
O699        O  0.32741015  0.62441416  0.58488360    -0.71400
Cu700      Cu  0.40863141  0.31926529  0.61044883     1.04600
Cu701      Cu  0.37790299  0.58844359  0.61465161     1.04300
C702        C  0.66140951  0.65199287  0.58069055     0.94900
C703        C  0.46727382  0.58728606  0.66096908     0.94000
C704        C  0.44460019  0.60353632  0.55192054     0.86200
C705        C  0.34771476  0.65620225  0.68007520     0.92400
N706        N  0.50405638  0.58862482  0.72524267    -0.01800
C707        C  0.55453525  0.57642027  0.73653371     0.00700
C708        C  0.57627261  0.53793457  0.71117159    -0.22100
C709        C  0.54412410  0.53413712  0.68078341    -0.22400
C710        C  0.50182395  0.56709935  0.68955056     0.00600
H711        H  0.61658129  0.52328795  0.71054492     0.14400
H712        H  0.55372982  0.51447667  0.65373358     0.14500
N713        N  0.59132550  0.63371075  0.53679934    -0.01800
C714        C  0.60684335  0.65823015  0.56955180     0.00700
C715        C  0.57418218  0.64056837  0.59802206    -0.22100
C716        C  0.54913905  0.59633808  0.58349547    -0.22400
C717        C  0.55927072  0.59355950  0.54551344     0.00600
H718        H  0.57848606  0.64947356  0.62787978     0.14400
H719        H  0.52388781  0.57028046  0.59849979     0.14500
N720        N  0.40022682  0.49161618  0.82116003    -0.01800
C721        C  0.39293505  0.43995891  0.80726152     0.00700
C722        C  0.35053791  0.41967675  0.82732900    -0.22100
C723        C  0.34231764  0.45219052  0.85918296    -0.22400
C724        C  0.37558075  0.49432010  0.85594889     0.00600
H725        H  0.33674918  0.37929475  0.82484699     0.14400
H726        H  0.31999441  0.44238364  0.88402340     0.14500
C727        C  0.40346562  0.53934680  0.79711879     0.88100
C728        C  0.45019363  0.53760156  0.76882121    -0.52100
C729        C  0.45711876  0.58247310  0.74963150     0.11000
C730        C  0.41243779  0.62505000  0.75872510     0.22000
C731        C  0.41115586  0.59178621  0.82022138    -0.52800
C732        C  0.41615834  0.63716164  0.80141256     0.11100
C733        C  0.35370899  0.55102241  0.77420718    -0.52400
C734        C  0.35693829  0.59614022  0.75439040     0.11700
H735        H  0.47719305  0.50435767  0.76480415     0.16200
H736        H  0.41448445  0.32575835  0.73813208     0.02000
H737        H  0.41295691  0.59274648  0.84892908     0.16500
H738        H  0.65435346  0.52817679  0.77923931     0.16300
N739        N  0.43628231  0.35087293  0.81519052    -0.01800
C740        C  0.43988854  0.40132994  0.80249753     0.00700
C741        C  0.48710222  0.42231160  0.81625935    -0.22100
C742        C  0.50418983  0.39084692  0.84378671    -0.22400
C743        C  0.47020608  0.34909408  0.84398235     0.00600
H744        H  0.49989153  0.46275020  0.81508652     0.14400
H745        H  0.53221757  0.40211758  0.86519727     0.14500
N746        N  0.30493287  0.60844362  0.23536738    -0.02200
C747        C  0.29882636  0.55889196  0.24909570     0.00700
C748        C  0.25590243  0.53631351  0.23024099    -0.22100
C749        C  0.24897316  0.56367583  0.19837079    -0.22400
C750        C  0.28238742  0.60587965  0.20163596     0.00600
H751        H  0.24228749  0.49617531  0.23225355     0.14400
H752        H  0.22901665  0.54927006  0.17336105     0.14500
O753        O  0.49239091  0.62687475  0.89515882    -0.71300
O754        O  0.45295102  0.53907000  0.98185130    -0.72300
O755        O  0.44258165  0.52594518  0.89921975    -0.60900
O756        O  0.49002049  0.29622929  0.96939446    -0.69300
O757        O  0.41325129  0.33956466  0.97199400    -0.68900
O758        O  0.36200913  0.56038054  0.90648449    -0.60100
O759        O  0.37323752  0.57525683  0.98776495    -0.72600
O760        O  0.41142377  0.66148029  0.89915893    -0.71400
Cu761      Cu  0.47439721  0.58074687  0.93755327     1.04600
Cu762      Cu  0.38845342  0.61851508  0.94300116     1.04300
C763        C  0.45601168  0.32256381  0.87848580     0.94900
C764        C  0.40964435  0.54651804  0.00056090     0.94000
C765        C  0.39387162  0.52700178  0.88969118     0.86200
C766        C  0.46083355  0.33456397  0.98243572     0.92400
N767        N  0.34186265  0.46879235  0.23375557    -0.01800
C768        C  0.34622871  0.52068760  0.24806433     0.00700
C769        C  0.39244112  0.54123594  0.23290712    -0.22100
C770        C  0.40945435  0.50727795  0.20358039    -0.22400
C771        C  0.37662503  0.46440248  0.20345211     0.00600
H772        H  0.40544018  0.58178668  0.23661927     0.14400
H773        H  0.43932744  0.51540144  0.18254968     0.14500
O774        O  0.64443191  0.64708868  0.08051529    -0.71300
O775        O  0.65594572  0.42144512  0.15596500    -0.72300
O776        O  0.67235837  0.39870557  0.07365483    -0.60900
O777        O  0.62310916  0.65955934  0.15648521    -0.69300
O778        O  0.36043987  0.62811913  0.16960951    -0.68900
O779        O  0.44336776  0.35965188  0.08901022    -0.60100
O780        O  0.40969471  0.38776689  0.16703511    -0.72600
O781        O  0.40277828  0.60718814  0.09775118    -0.71400
Cu782      Cu  0.62912556  0.36777975  0.11534243     1.04600
Cu783      Cu  0.40022356  0.32708811  0.12850383     1.04300
C784        C  0.36365145  0.59459559  0.07753104     0.94900
C785        C  0.37453153  0.42411961  0.17081500     0.94000
C786        C  0.42052729  0.38241594  0.06279759     0.86200
C787        C  0.30977352  0.62880363  0.17010391     0.92400
N788        N  0.40316387  0.52529765  0.03720088    -0.01800
C789        C  0.36511999  0.54019584  0.06315477     0.00700
C790        C  0.37048279  0.50956792  0.09382818    -0.22100
C791        C  0.42025370  0.48816905  0.09088806    -0.22400
C792        C  0.43838882  0.49522778  0.05484350     0.00600
H793        H  0.34863062  0.51514245  0.12026156     0.14400
H794        H  0.43884903  0.46502717  0.11155921     0.14500
N795        N  0.45268873  0.40360690  0.03351400    -0.01800
C796        C  0.48262533  0.37662434  0.00700541     0.00700
C797        C  0.52121709  0.40960006  0.99346470    -0.22100
C798        C  0.51340363  0.45866973  0.01172624    -0.22400
C799        C  0.47014829  0.45345718  0.03541803     0.00600
H800        H  0.54759968  0.40101021  0.96954494     0.14400
H801        H  0.53449994  0.49451683  0.00628183     0.14500
C802        C  0.33251042  0.42190376  0.25738615     0.88100
C803        C  0.38193481  0.40534323  0.27884618    -0.52100
C804        C  0.37621756  0.36038055  0.29813143     0.11000
C805        C  0.32512326  0.67236920  0.29559088     0.22000
C806        C  0.31749897  0.37237411  0.23359039    -0.52800
C807        C  0.31846571  0.66043683  0.25346301     0.11100
C808        C  0.61820707  0.41470628  0.29071155    -0.52400
C809        C  0.61038303  0.36821763  0.30850159     0.11700
H810        H  0.41927106  0.42590158  0.27692924     0.16200
H811        H  0.32045546  0.63640294  0.31154541     0.02000
H812        H  0.30360946  0.37739130  0.20598834     0.16500
H813        H  0.59111251  0.44806784  0.29426330     0.16300
N814        N  0.47266070  0.58742648  0.51794547    -0.01800
C815        C  0.45121837  0.56560799  0.48653024     0.00700
C816        C  0.48743421  0.53161047  0.46792337    -0.22100
C817        C  0.53254611  0.53295639  0.48909338    -0.22400
C818        C  0.52203694  0.56875905  0.51913106     0.00600
H819        H  0.48353343  0.51217977  0.44031818     0.14400
H820        H  0.56964974  0.51299200  0.48190410     0.14500
N821        N  0.56755297  0.69553045  0.33030456    -0.01800
C822        C  0.51874405  0.71253670  0.31827200     0.00700
C823        C  0.49214107  0.07496396  0.34728756    -0.22100
C824        C  0.52603821  0.07449541  0.37680277    -0.22400
C825        C  0.56746501  0.04219573  0.36492104     0.00600
H826        H  0.45217743  0.09047720  0.34963780     0.14400
H827        H  0.51917992  0.09173667  0.40485681     0.14500
N828        N  0.42729843  0.67439248  0.31372032    -0.01800
C829        C  0.47923204  0.67363035  0.30085457     0.00700
C830        C  0.48921975  0.94663746  0.30846150    -0.22100
C831        C  0.45046843  0.92333106  0.32961515    -0.22400
C832        C  0.41006253  0.95983943  0.33466522     0.00600
H833        H  0.52949394  0.93187444  0.30612893     0.14400
H834        H  0.45616077  0.88877007  0.34561248     0.14500
O835        O  0.41198385  0.64224696  0.46498090    -0.71300
O836        O  0.62657851  0.71351746  0.41660424    -0.72300
O837        O  0.63705863  0.68385428  0.49314336    -0.60900
O838        O  0.39852706  0.67103890  0.38963949    -0.69300
O839        O  0.35071593  0.93917118  0.38549504    -0.68900
O840        O  0.63083521  0.96738130  0.47773819    -0.60100
O841        O  0.61139714  0.97513665  0.39682041    -0.72600
O842        O  0.36788094  0.92500112  0.46337681    -0.71400
Cu843      Cu  0.35926366  0.68468824  0.43845187     1.04600
Cu844      Cu  0.31365098  0.96281210  0.43473629     1.04300
C845        C  0.40801166  0.95163987  0.47351553     0.94900
C846        C  0.60898468  0.02395936  0.38927248     0.94000
C847        C  0.63301994  0.01375992  0.49370940     0.86200
C848        C  0.38429934  0.97042552  0.37156810     0.92400
N849        N  0.63586347  0.95530673  0.73927020    -0.01800
C850        C  0.58465855  0.94917187  0.75221148     0.00700
C851        C  0.56037604  0.99880395  0.75330875    -0.22100
C852        C  0.59225676  0.03123372  0.73316239    -0.22400
C853        C  0.63682611  0.00204539  0.72308505     0.00600
H854        H  0.51880842  0.00680291  0.75874660     0.14400
H855        H  0.57964877  0.06745838  0.72121839     0.14500
O856        O  0.36347761  0.70433158  0.58969993    -0.71300
O857        O  0.47219420  0.63511429  0.65147236    -0.72300
O858        O  0.45477250  0.64791840  0.56939430    -0.60900
O859        O  0.37849648  0.69110635  0.66752070    -0.69300
O860        O  0.33926008  0.95722090  0.66204669    -0.68900
O861        O  0.41915940  0.92645845  0.56602512    -0.60100
O862        O  0.42904432  0.89550165  0.64343108    -0.72600
O863        O  0.33139654  0.98764540  0.58726447    -0.71400
Cu864      Cu  0.41967205  0.67238931  0.61941920     1.04600
Cu865      Cu  0.37823447  0.93909174  0.61419115     1.04300
C866        C  0.64366086  0.04155568  0.58213175     0.94900
C867        C  0.46573733  0.91876481  0.66188024     0.94000
C868        C  0.45425763  0.95936754  0.55669788     0.86200
C869        C  0.34902918  0.99695509  0.68434536     0.92400
N870        N  0.49963961  0.91358220  0.72520427    -0.01800
C871        C  0.55074213  0.90453490  0.73606092     0.00700
C872        C  0.57461943  0.86903652  0.70961465    -0.22100
C873        C  0.54083686  0.86244589  0.68005150    -0.22400
C874        C  0.49605107  0.89164782  0.68984709     0.00600
H875        H  0.61610027  0.85833860  0.70786681     0.14400
H876        H  0.55143687  0.84546296  0.65235702     0.14500
N877        N  0.59708576  0.02873213  0.52444244    -0.01800
C878        C  0.60803558  0.06138883  0.55446310     0.00700
C879        C  0.56259088  0.08855588  0.56649675    -0.22100
C880        C  0.52219758  0.06860792  0.54471212    -0.22400
C881        C  0.54438272  0.02870153  0.52121728     0.00600
H882        H  0.55740922  0.11322632  0.59209996     0.14400
H883        H  0.48061071  0.07798641  0.54878830     0.14500
N884        N  0.39045826  0.82518896  0.82200009    -0.01800
C885        C  0.38659115  0.77274640  0.80943348     0.00700
C886        C  0.34410246  0.75134304  0.82876931    -0.22100
C887        C  0.33169053  0.78560610  0.85908159    -0.22400
C888        C  0.36245100  0.82950161  0.85528805     0.00600
H889        H  0.33291665  0.71011578  0.82738418     0.14400
H890        H  0.30877045  0.77603476  0.88371989     0.14500
C891        C  0.39677359  0.87156347  0.79733481     0.88100
C892        C  0.44423518  0.86692538  0.76988068    -0.52100
C893        C  0.45330262  0.91071553  0.75017593     0.11000
C894        C  0.41030480  0.95510766  0.75765818     0.22000
C895        C  0.40572152  0.92454798  0.81954613    -0.52800
C896        C  0.41269344  0.96891444  0.79993175     0.11100
C897        C  0.34835862  0.88411373  0.77356891    -0.52400
C898        C  0.35403542  0.92846958  0.75330066     0.11700
H899        H  0.46967634  0.83241312  0.76632564     0.16200
H900        H  0.41754138  0.66094581  0.74266307     0.02000
H901        H  0.40686661  0.92659981  0.84856247     0.16500
H902        H  0.64939788  0.86449795  0.77695702     0.16300
N903        N  0.43385290  0.68706558  0.82047358    -0.01800
C904        C  0.43567846  0.73725000  0.80740410     0.00700
C905        C  0.48097975  0.76122489  0.82211318    -0.22100
C906        C  0.49964562  0.73055593  0.84948839    -0.22400
C907        C  0.46809780  0.68692741  0.84930482     0.00600
H908        H  0.49137541  0.80241618  0.82129679     0.14400
H909        H  0.52701739  0.74312139  0.87102793     0.14500
N910        N  0.29550968  0.94503371  0.23497037    -0.02200
C911        C  0.29103389  0.89487294  0.24803077     0.00700
C912        C  0.24857016  0.87152146  0.22921393    -0.22100
C913        C  0.23910494  0.90038069  0.19836095    -0.22400
C914        C  0.27134758  0.94360146  0.20161855     0.00600
H915        H  0.23656737  0.83074963  0.23060028     0.14400
H916        H  0.21874916  0.88617913  0.17346614     0.14500
O917        O  0.48419619  0.95883192  0.89318627    -0.71300
O918        O  0.43420555  0.87526167  0.97919642    -0.72300
O919        O  0.42812419  0.86038463  0.89850691    -0.60900
O920        O  0.49935736  0.63895991  0.97439624    -0.69300
O921        O  0.41828720  0.67322025  0.97839050    -0.68900
O922        O  0.34948398  0.89975032  0.90286044    -0.60100
O923        O  0.35681256  0.91594294  0.98312009    -0.72600
O924        O  0.40552344  0.99852494  0.89610495    -0.71400
Cu925      Cu  0.46137738  0.91431306  0.93569906     1.04600
Cu926      Cu  0.37777174  0.95732304  0.93920094     1.04300
C927        C  0.45768153  0.65839327  0.88361322     0.94900
C928        C  0.39034314  0.88472736  0.99650362     0.94000
C929        C  0.37989380  0.86314649  0.88836896     0.86200
C930        C  0.46657673  0.67420764  0.98777716     0.92400
N931        N  0.33670929  0.80584130  0.23368449    -0.01800
C932        C  0.33948979  0.85802796  0.24791301     0.00700
C933        C  0.38467456  0.88005375  0.23235976    -0.22100
C934        C  0.40107516  0.84730364  0.20223904    -0.22400
C935        C  0.36919852  0.80370695  0.20230507     0.00600
H936        H  0.39693979  0.92080302  0.23638671     0.14400
H937        H  0.43045166  0.85618410  0.18105133     0.14500
O938        O  0.59871333  0.95184142  0.07251600    -0.71300
O939        O  0.67072981  0.76253026  0.16029301    -0.72300
O940        O  0.69256417  0.74716434  0.07987564    -0.60900
O941        O  0.57942681  0.97314168  0.15081381    -0.69300
O942        O  0.34885336  0.95997003  0.16665409    -0.68900
O943        O  0.44658542  0.70130384  0.09394220    -0.60100
O944        O  0.40855851  0.72837029  0.16975057    -0.72600
O945        O  0.38407173  0.93918099  0.09268671    -0.71400
Cu946      Cu  0.65524491  0.70637944  0.11883708     1.04600
Cu947      Cu  0.40694199  0.66554817  0.13355747     1.04300
C948        C  0.34312606  0.93198706  0.07305521     0.94900
C949        C  0.37032101  0.76120393  0.17140462     0.94000
C950        C  0.42109235  0.71841083  0.06665163     0.86200
C951        C  0.29855631  0.96556150  0.16924381     0.92400
N952        N  0.37960879  0.86265491  0.03218267    -0.01800
C953        C  0.33927593  0.87892456  0.05597660     0.00700
C954        C  0.33773128  0.84578495  0.08551900    -0.22100
C955        C  0.38716153  0.82350664  0.08587082    -0.22400
C956        C  0.41147662  0.83144020  0.05178547     0.00600
H957        H  0.31245541  0.85087016  0.11045885     0.14400
H958        H  0.40371459  0.80310400  0.10858991     0.14500
N959        N  0.44936435  0.74304029  0.03740435    -0.01800
C960        C  0.48338714  0.71961329  0.01187413     0.00700
C961        C  0.51439016  0.75836368  0.99696961    -0.22100
C962        C  0.49627908  0.80650089  0.01278139    -0.22400
C963        C  0.45396620  0.79555675  0.03612709     0.00600
H964        H  0.54228229  0.75314776  0.97357870     0.14400
H965        H  0.51135504  0.84483483  0.00638416     0.14500
C966        C  0.33213417  0.75824651  0.25743316     0.88100
C967        C  0.38344273  0.74478473  0.27811108    -0.52100
C968        C  0.38086116  0.69987082  0.29790322     0.11000
C969        C  0.31902547  0.00765076  0.29558984     0.22000
C970        C  0.31905348  0.70683715  0.23454177    -0.52800
C971        C  0.31224752  0.99584092  0.25321988     0.11100
C972        C  0.62422229  0.75245010  0.29222905    -0.52400
C973        C  0.61773876  0.70638226  0.31031836     0.11700
H974        H  0.41957168  0.76714512  0.27526184     0.16200
H975        H  0.31163400  0.97241892  0.31193032     0.02000
H976        H  0.30356318  0.71007137  0.20714960     0.16500
H977        H  0.59526278  0.78420772  0.29485975     0.16300
N978        N  0.47579582  0.95613804  0.51874045    -0.01800
C979        C  0.45423984  0.92760775  0.48959291     0.00700
C980        C  0.49178210  0.92210918  0.46079383    -0.22100
C981        C  0.52657787  0.96239577  0.46777425    -0.22400
C982        C  0.51642713  0.98292771  0.50368819     0.00600
H983        H  0.48470069  0.90568248  0.43262162     0.14400
H984        H  0.55040432  0.98009412  0.44690852     0.14500
N985        N  0.89173700  0.03985854  0.32322209    -0.01800
C986        C  0.84225284  0.04729667  0.30798642     0.00700
C987        C  0.81981160  0.41462309  0.34553055    -0.22100
C988        C  0.85213111  0.41900583  0.37592880    -0.22400
C989        C  0.89681487  0.39006445  0.36592675     0.00600
H990        H  0.77826732  0.42495988  0.34724665     0.14400
H991        H  0.84055130  0.43418542  0.40390344     0.14500
N992        N  0.75718261  0.99608774  0.30552422    -0.01800
C993        C  0.80928805  0.00055144  0.29372173     0.00700
C994        C  0.83420763  0.28358275  0.30670992    -0.22100
C995        C  0.80005359  0.25200430  0.32582441    -0.22400
C996        C  0.75490397  0.28163191  0.33332335     0.00600
H997        H  0.87600210  0.27506630  0.30286347     0.14400
H998        H  0.81066178  0.21557987  0.33834165     0.14500
O999        O  0.76048865  0.00156743  0.46078908    -0.71300
O1000       O  0.94434682  0.08900953  0.40593655    -0.72300
O1001       O  0.96383780  0.09108538  0.48665377    -0.60900
O1002       O  0.73816578  0.00780784  0.38227299    -0.69300
O1003       O  0.69394653  0.23844519  0.37259597    -0.68900
O1004       O  0.92595767  0.27490177  0.46746343    -0.60100
O1005       O  0.92542443  0.31209397  0.39233427    -0.72600
O1006       O  0.69949942  0.19993241  0.44595859    -0.71400
Cu1007     Cu  0.70274026  0.03118716  0.43139193     1.04600
Cu1008     Cu  0.64498824  0.23947410  0.41730976     1.04300
C1009       C  0.73341275  0.22650346  0.46501180     0.94900
C1010       C  0.92767614  0.36254545  0.39306505     0.94000
C1011       C  0.93197842  0.30920185  0.49448148     0.86200
C1012       C  0.72361524  0.27797610  0.36804928     0.92400
N1013       N  0.96714976  0.30287940  0.74157280    -0.01800
C1014       C  0.91427753  0.29946320  0.75174382     0.00700
C1015       C  0.89203610  0.34888075  0.74640066    -0.22100
C1016       C  0.92698642  0.37540347  0.72407550    -0.22400
C1017       C  0.97144630  0.34387495  0.71949951     0.00600
H1018       H  0.85029676  0.35849837  0.74856799     0.14400
H1019       H  0.91644211  0.40770952  0.70704108     0.14500
O1020       O  0.67515869  0.07177292  0.60049343    -0.71300
O1021       O  0.78595421  0.99557134  0.65772044    -0.72300
O1022       O  0.77142624  0.02670193  0.58081923    -0.60900
O1023       O  0.68872552  0.04354815  0.67705649    -0.69300
O1024       O  0.66555761  0.26425994  0.66278863    -0.68900
O1025       O  0.74104083  0.20804158  0.56966831    -0.60100
O1026       O  0.76210353  0.21578640  0.64858934    -0.72600
O1027       O  0.64717345  0.25239613  0.58544949    -0.71400
Cu1028     Cu  0.73171352  0.03725833  0.62951985     1.04600
Cu1029     Cu  0.70286087  0.23259525  0.61674305     1.04300
C1030       C  0.96651443  0.32598789  0.57944026     0.94900
C1031       C  0.79279637  0.25289758  0.65878995     0.94000
C1032       C  0.76253273  0.24234083  0.54962138     0.86200
C1033       C  0.66744392  0.31269362  0.67516453     0.92400
N1034       N  0.83006767  0.26199840  0.72321507    -0.01800
C1035       C  0.88064461  0.25373153  0.73622180     0.00700
C1036       C  0.90716523  0.21854933  0.71074228    -0.22100
C1037       C  0.87767672  0.21369820  0.67903903    -0.22400
C1038       C  0.83238146  0.24261632  0.68692274     0.00600
H1039       H  0.94824928  0.20669599  0.71146531     0.14400
H1040       H  0.88977456  0.19461546  0.65227364     0.14500
N1041       N  0.90620507  0.30222093  0.53035353    -0.01800
C1042       C  0.91525828  0.33218377  0.56246482     0.00700
C1043       C  0.87890441  0.31768127  0.58950397    -0.22100
C1044       C  0.86331634  0.26774281  0.57792540    -0.22400
C1045       C  0.87708721  0.26021148  0.54061477     0.00600
H1046       H  0.87835707  0.33182613  0.61878167     0.14400
H1047       H  0.84224793  0.24008790  0.59440895     0.14500
N1048       N  0.72175191  0.16087114  0.81606140    -0.01800
C1049       C  0.71931807  0.10910351  0.80202157     0.00700
C1050       C  0.67464655  0.08654630  0.81794509    -0.22100
C1051       C  0.65655363  0.12042466  0.84707425    -0.22400
C1052       C  0.68725690  0.16483976  0.84634446     0.00600
H1053       H  0.66394245  0.04524932  0.81508484     0.14400
H1054       H  0.62916025  0.11051657  0.86926857     0.14500
C1055       C  0.72883548  0.20778199  0.79248428     0.88100
C1056       C  0.77458365  0.20617150  0.76314924    -0.52100
C1057       C  0.78153691  0.25267313  0.74542120     0.11000
C1058       C  0.73697850  0.29513520  0.75641577     0.22000
C1059       C  0.74082346  0.25780482  0.81647279    -0.52800
C1060       C  0.74329014  0.30496007  0.79922714     0.11100
C1061       C  0.67876339  0.22111061  0.77157615    -0.52400
C1062       C  0.68149770  0.26621111  0.75274571     0.11700
H1063       H  0.80174894  0.17308161  0.75853951     0.16200
H1064       H  0.74219280  0.99796753  0.73856291     0.02000
H1065       H  0.75618857  0.25214188  0.84318587     0.16500
H1066       H  0.97631612  0.21192033  0.77950724     0.16300
N1067       N  0.76693571  0.02493356  0.81419858    -0.01800
C1068       C  0.76877475  0.07445996  0.80038609     0.00700
C1069       C  0.81285130  0.09944039  0.81615597    -0.22100
C1070       C  0.82801979  0.07117845  0.84592861    -0.22400
C1071       C  0.79667607  0.02736431  0.84523682     0.00600
H1072       H  0.82328455  0.14049110  0.81426804     0.14400
H1073       H  0.85194071  0.08590721  0.86895094     0.14500
N1074       N  0.62625894  0.26632116  0.23675796    -0.02200
C1075       C  0.62070604  0.21531039  0.24820335     0.00700
C1076       C  0.57346898  0.19650717  0.23316554    -0.22100
C1077       C  0.55972690  0.22897342  0.20514705    -0.22400
C1078       C  0.59498963  0.26984225  0.20666930     0.00600
H1079       H  0.55917237  0.15643962  0.23413498     0.14400
H1080       H  0.53364628  0.21852915  0.18233377     0.14500
O1081       O  0.80121082  0.29078935  0.89865977    -0.71300
O1082       O  0.72782949  0.20814066  0.97838645    -0.72300
O1083       O  0.74126005  0.19440313  0.89714200    -0.60900
O1084       O  0.79578461  0.98883228  0.97462744    -0.69300
O1085       O  0.71539037  0.02258691  0.96782493    -0.68900
O1086       O  0.66502595  0.23679378  0.89215816    -0.60100
O1087       O  0.65474128  0.25507593  0.97418164    -0.72600
O1088       O  0.72471519  0.33252320  0.89239241    -0.71400
Cu1089     Cu  0.76732348  0.24608422  0.93798236     1.04600
Cu1090     Cu  0.68727483  0.29374482  0.93225840     1.04300
C1091       C  0.77793107  0.00375596  0.87954746     0.94900
C1092       C  0.68210971  0.22218579  0.99146335     0.94000
C1093       C  0.69716689  0.19949728  0.88084991     0.86200
C1094       C  0.75990474  0.02277224  0.98394332     0.92400
N1095       N  0.65708371  0.12314903  0.22880962    -0.01800
C1096       C  0.66605686  0.17497071  0.24203506     0.00700
C1097       C  0.70912285  0.19357595  0.22177883    -0.22100
C1098       C  0.71875109  0.15863721  0.19141137    -0.22400
C1099       C  0.68475201  0.11731776  0.19542324     0.00600
H1100       H  0.72420569  0.23349358  0.22370819     0.14400
H1101       H  0.74455149  0.16491857  0.16750452     0.14500
O1102       O  0.93198827  0.34076445  0.07931845    -0.71300
O1103       O  0.96733431  0.10605852  0.15419836    -0.72300
O1104       O  0.96253991  0.09236288  0.07168485    -0.60900
O1105       O  0.92453886  0.34803138  0.15718595    -0.69300
O1106       O  0.66526345  0.28362658  0.16482896    -0.68900
O1107       O  0.72820339  0.01627723  0.08089080    -0.60100
O1108       O  0.71052599  0.03866930  0.15882730    -0.72600
O1109       O  0.68192344  0.27030889  0.08698494    -0.71400
Cu1110     Cu  0.93941315  0.05071906  0.11536083     1.04600
Cu1111     Cu  0.69620235  0.97699451  0.12212435     1.04300
C1112       C  0.63827065  0.27425317  0.06994181     0.94900
C1113       C  0.67579615  0.07493932  0.16545386     0.94000
C1114       C  0.69962355  0.04532166  0.06139802     0.86200
C1115       C  0.61661182  0.29315237  0.17277734     0.92400
N1116       N  0.66140074  0.20295064  0.02629666    -0.01800
C1117       C  0.62235656  0.22749779  0.04755857     0.00700
C1118       C  0.60285876  0.19254311  0.07272306    -0.22100
C1119       C  0.64188015  0.15541396  0.07519180    -0.22400
C1120       C  0.67787106  0.16245690  0.04642712     0.00600
H1121       H  0.57484531  0.20236012  0.09557554     0.14400
H1122       H  0.64703730  0.13193046  0.09889129     0.14500
N1123       N  0.72481753  0.07812400  0.03508080    -0.01800
C1124       C  0.76730396  0.06288666  0.01386442     0.00700
C1125       C  0.79978192  0.10551996  0.00891621    -0.22100
C1126       C  0.77471558  0.14867497  0.02695620    -0.22400
C1127       C  0.72657476  0.13082753  0.04000405     0.00600
H1128       H  0.83377420  0.10678335  0.99003024     0.14400
H1129       H  0.78781445  0.18921940  0.02686549     0.14500
C1130       C  0.65450808  0.07639368  0.25308814     0.88100
C1131       C  0.70822073  0.06303537  0.27027398    -0.52100
C1132       C  0.70838570  0.01933226  0.29110312     0.11000
C1133       C  0.65468801  0.32505935  0.29827287     0.22000
C1134       C  0.63772314  0.02479816  0.23171757    -0.52800
C1135       C  0.64862466  0.31464807  0.25558038     0.11100
C1136       C  0.94679491  0.09505875  0.28254606    -0.52400
C1137       C  0.94169572  0.05053569  0.30258786     0.11700
H1138       H  0.74375462  0.08516071  0.26458044     0.16200
H1139       H  0.64958960  0.28856550  0.31359771     0.02000
H1140       H  0.61495929  0.02739817  0.20702781     0.16500
H1141       H  0.91647944  0.12554367  0.28357505     0.16300
N1142       N  0.79336161  0.22468534  0.51708642    -0.01800
C1143       C  0.77584147  0.20132586  0.48489300     0.00700
C1144       C  0.81892270  0.17980974  0.46475936    -0.22100
C1145       C  0.86368857  0.19282226  0.48466024    -0.22400
C1146       C  0.84642237  0.22375706  0.51572127     0.00600
H1147       H  0.81901160  0.16511618  0.43592618     0.14400
H1148       H  0.90401220  0.18438236  0.47547933     0.14500
N1149       N  0.89565390  0.37161815  0.32971418    -0.01800
C1150       C  0.84424587  0.37974438  0.31881541     0.00700
C1151       C  0.83556214  0.75561658  0.35658630    -0.22100
C1152       C  0.87236880  0.75801176  0.38444081    -0.22400
C1153       C  0.91550529  0.72948904  0.37039330     0.00600
H1154       H  0.79451513  0.76701916  0.36111572     0.14400
H1155       H  0.86545628  0.77260222  0.41325428     0.14500
N1156       N  0.75819022  0.32815544  0.31706675    -0.01800
C1157       C  0.81033589  0.33315876  0.30537502     0.00700
C1158       C  0.84003566  0.62822183  0.31428734    -0.22100
C1159       C  0.80579342  0.60008990  0.33593979    -0.22400
C1160       C  0.76285372  0.63267746  0.34353728     0.00600
H1161       H  0.88106901  0.61704275  0.30935002     0.14400
H1162       H  0.81500144  0.56391186  0.34925087     0.14500
O1163       O  0.73349201  0.27682404  0.46593656    -0.71300
O1164       O  0.95762357  0.38813570  0.41570069    -0.72300
O1165       O  0.96306680  0.34805863  0.49031287    -0.60900
O1166       O  0.72564990  0.31619808  0.39307493    -0.69300
O1167       O  0.70305266  0.59146746  0.38412334    -0.68900
O1168       O  0.95894691  0.62917119  0.47526534    -0.60100
O1169       O  0.94726327  0.65322687  0.39740774    -0.72600
O1170       O  0.71256166  0.56614637  0.45926334    -0.71400
Cu1171     Cu  0.68162468  0.32041586  0.44089272     1.04600
Cu1172     Cu  0.65477679  0.59578405  0.42842382     1.04300
C1173       C  0.74319120  0.59900955  0.47612766     0.94900
C1174       C  0.95268585  0.70285057  0.39388738     0.94000
C1175       C  0.96672545  0.67224034  0.49468729     0.86200
C1176       C  0.72992469  0.63207772  0.37745981     0.92400
N1177       N  0.97690680  0.64082038  0.74423175    -0.01800
C1178       C  0.92527899  0.63827833  0.75723597     0.00700
C1179       C  0.90232868  0.68773143  0.75326315    -0.22100
C1180       C  0.93596986  0.71552716  0.73091133    -0.22400
C1181       C  0.98011568  0.68411801  0.72386877     0.00600
H1182       H  0.86076924  0.69732761  0.75723700     0.14400
H1183       H  0.92454018  0.74919689  0.71546533     0.14500
O1184       O  0.66714015  0.33709016  0.58018903    -0.71300
O1185       O  0.78992660  0.29820252  0.64433487    -0.72300
O1186       O  0.76412393  0.29100868  0.56149299    -0.60900
O1187       O  0.69210229  0.34693379  0.65706886    -0.69300
O1188       O  0.68749266  0.60077852  0.66450468    -0.68900
O1189       O  0.77357892  0.57358378  0.56807468    -0.60100
O1190       O  0.78820009  0.56130155  0.64747122    -0.72600
O1191       O  0.67356408  0.60452244  0.58631629    -0.71400
Cu1192     Cu  0.73049321  0.32130089  0.61018877     1.04600
Cu1193     Cu  0.73029499  0.58225327  0.61634241     1.04300
C1194       C  0.98037106  0.69898662  0.58113417     0.94900
C1195       C  0.81334354  0.59666145  0.66588835     0.94000
C1196       C  0.79581358  0.61443677  0.55558797     0.86200
C1197       C  0.68432413  0.64720066  0.68106853     0.92400
N1198       N  0.84064597  0.60005213  0.73269314    -0.01800
C1199       C  0.89034851  0.59133847  0.74667403     0.00700
C1200       C  0.91545099  0.55175513  0.72384534    -0.22100
C1201       C  0.88802210  0.54673725  0.69138254    -0.22400
C1202       C  0.84530293  0.57994253  0.69672862     0.00600
H1203       H  0.95572752  0.53801671  0.72529141     0.14400
H1204       H  0.90131236  0.52640785  0.66532572     0.14500
N1205       N  0.93065830  0.68855002  0.52483536    -0.01800
C1206       C  0.94294115  0.71958709  0.55518738     0.00700
C1207       C  0.89850465  0.74760791  0.56827693    -0.22100
C1208       C  0.85741850  0.73077864  0.54587962    -0.22400
C1209       C  0.87816738  0.69159114  0.52110260     0.00600
H1210       H  0.89447566  0.77144704  0.59436466     0.14400
H1211       H  0.81626339  0.74190762  0.55002658     0.14500
N1212       N  0.73375511  0.49522073  0.82455543    -0.01800
C1213       C  0.72486373  0.44428023  0.80992828     0.00700
C1214       C  0.67911557  0.42592313  0.82727110    -0.22100
C1215       C  0.66794699  0.45920972  0.85826396    -0.22400
C1216       C  0.70382871  0.49944741  0.85716707     0.00600
H1217       H  0.66353070  0.38630231  0.82377894     0.14400
H1218       H  0.64121697  0.45125081  0.88133846     0.14500
C1219       C  0.73879322  0.54269147  0.80074396     0.88100
C1220       C  0.78585936  0.54243097  0.77241870    -0.52100
C1221       C  0.79149258  0.58839742  0.75372091     0.11000
C1222       C  0.74480316  0.62889195  0.76293716     0.22000
C1223       C  0.74719133  0.59470145  0.82401042    -0.52800
C1224       C  0.74892190  0.64091865  0.80562053     0.11100
C1225       C  0.68900405  0.55308831  0.77836138    -0.52400
C1226       C  0.69079141  0.59751512  0.75856977     0.11700
H1227       H  0.81495388  0.51081339  0.76959537     0.16200
H1228       H  0.74076205  0.33182211  0.74105516     0.02000
H1229       H  0.76019202  0.59221366  0.85140904     0.16500
H1230       H  0.98471377  0.55176553  0.78527540     0.16300
N1231       N  0.76274960  0.35373637  0.81889683    -0.01800
C1232       C  0.76992691  0.40370090  0.80628012     0.00700
C1233       C  0.81675843  0.42258415  0.82193742    -0.22100
C1234       C  0.82905180  0.39119580  0.85083825    -0.22400
C1235       C  0.79318469  0.35096667  0.84950829     0.00600
H1236       H  0.83185883  0.46222193  0.82048715     0.14400
H1237       H  0.85520624  0.40164716  0.87360140     0.14500
N1238       N  0.65521287  0.60234863  0.23975183    -0.02200
C1239       C  0.64261259  0.55427423  0.25412312     0.00700
C1240       C  0.59679929  0.53692766  0.23627503    -0.22100
C1241       C  0.59246093  0.56434611  0.20421869    -0.22400
C1242       C  0.63137516  0.60164340  0.20620012     0.00600
H1243       H  0.57782692  0.49927510  0.23953650     0.14400
H1244       H  0.56825807  0.55382915  0.18037455     0.14500
O1245       O  0.81651001  0.63296955  0.90222803    -0.71300
O1246       O  0.76399835  0.54642162  0.98638634    -0.72300
O1247       O  0.76417476  0.53192905  0.90417294    -0.60900
O1248       O  0.79008213  0.29960291  0.97698387    -0.69300
O1249       O  0.71570472  0.34543195  0.97135350    -0.68900
O1250       O  0.68410345  0.56818565  0.90462635    -0.60100
O1251       O  0.68408181  0.58185718  0.98561863    -0.72600
O1252       O  0.73598098  0.66820513  0.90159916    -0.71400
Cu1253     Cu  0.79270635  0.58634202  0.94357123     1.04600
Cu1254     Cu  0.70696061  0.62457381  0.94319114     1.04300
C1255       C  0.77338435  0.32537619  0.88309270     0.94900
C1256       C  0.71825434  0.55416049  0.00153040     0.94000
C1257       C  0.71733984  0.53362812  0.89107336     0.86200
C1258       C  0.76088200  0.33955117  0.98600631     0.92400
N1259       N  0.67394644  0.45945643  0.23859823    -0.01800
C1260       C  0.68463092  0.51012223  0.25340713     0.00700
C1261       C  0.73376673  0.52477298  0.23900330    -0.22100
C1262       C  0.74675336  0.48985724  0.20919749    -0.22400
C1263       C  0.70801480  0.45219691  0.20822469     0.00600
H1264       H  0.75174941  0.56325241  0.24326133     0.14400
H1265       H  0.77755006  0.49486858  0.18818949     0.14500
O1266       O  0.92555437  0.65467493  0.07933535    -0.71300
O1267       O  0.98361471  0.44534095  0.15868172    -0.72300
O1268       O  0.99189675  0.43411534  0.07716901    -0.60900
O1269       O  0.91912842  0.66880293  0.15827971    -0.69300
O1270       O  0.70333294  0.63021316  0.16911314    -0.68900
O1271       O  0.74545117  0.35521121  0.08689850    -0.60100
O1272       O  0.72887374  0.37609075  0.16653422    -0.72600
O1273       O  0.72548684  0.61844999  0.09212308    -0.71400
Cu1274     Cu  0.95576830  0.39431048  0.11798977     1.04600
Cu1275     Cu  0.70772363  0.31983567  0.12667722     1.04300
C1276       C  0.68101116  0.61235569  0.07652855     0.94900
C1277       C  0.69810344  0.41556342  0.17471699     0.94000
C1278       C  0.72053262  0.38523629  0.06600683     0.86200
C1279       C  0.65307507  0.62968837  0.17439601     0.92400
N1280       N  0.70629991  0.53546509  0.03809170    -0.01800
C1281       C  0.67075727  0.55864515  0.06287971     0.00700
C1282       C  0.66706548  0.52811381  0.09386543    -0.22100
C1283       C  0.71101590  0.49624640  0.09219895    -0.22400
C1284       C  0.73377769  0.50016367  0.05710652     0.00600
H1285       H  0.64455205  0.53783890  0.11957114     0.14400
H1286       H  0.72415869  0.47152784  0.11385917     0.14500
N1287       N  0.74921850  0.40844539  0.03632655    -0.01800
C1288       C  0.78086434  0.38183221  0.01093603     0.00700
C1289       C  0.82064307  0.41436927  0.99901462    -0.22100
C1290       C  0.81181695  0.46296489  0.01739798    -0.22400
C1291       C  0.76692979  0.45800182  0.03948906     0.00600
H1292       H  0.84872845  0.40588289  0.97608821     0.14400
H1293       H  0.83329188  0.49850333  0.01255804     0.14500
C1294       C  0.66471222  0.41228991  0.26205103     0.88100
C1295       C  0.71398397  0.39802442  0.28357696    -0.52100
C1296       C  0.71069083  0.35292388  0.30235612     0.11000
C1297       C  0.66579198  0.66626328  0.30261058     0.22000
C1298       C  0.65187710  0.36186296  0.23810844    -0.52800
C1299       C  0.66490421  0.65432318  0.25977501     0.11100
C1300       C  0.94986395  0.42848556  0.28952948    -0.52400
C1301       C  0.94305443  0.38162484  0.30677436     0.11700
H1302       H  0.75035493  0.42011061  0.28138148     0.16200
H1303       H  0.66209520  0.62986845  0.31822760     0.02000
H1304       H  0.63406511  0.36782007  0.21208729     0.16500
H1305       H  0.92192933  0.46101925  0.29359068     0.16300
N1306       N  0.81584866  0.61372985  0.51724357    -0.01800
C1307       C  0.79562030  0.58397229  0.48808303     0.00700
C1308       C  0.82858706  0.58882978  0.45689399    -0.22100
C1309       C  0.85648865  0.63429223  0.46402155    -0.22400
C1310       C  0.84881508  0.64869941  0.50142654     0.00600
H1311       H  0.82110236  0.57302007  0.42863172     0.14400
H1312       H  0.87732729  0.65641236  0.44364671     0.14500
N1313       N  0.90805516  0.71158534  0.33468566    -0.01800
C1314       C  0.85586427  0.72239083  0.32718451     0.00700
C1315       C  0.81377588  0.08376684  0.33121983    -0.22100
C1316       C  0.83937093  0.08853708  0.36436299    -0.22400
C1317       C  0.88524822  0.05993001  0.35933258     0.00600
H1318       H  0.77285212  0.09517379  0.32873151     0.14400
H1319       H  0.82333666  0.10595849  0.39035745     0.14500
N1320       N  0.76704952  0.67726829  0.32532692    -0.01800
C1321       C  0.81892284  0.67906771  0.31249132     0.00700
C1322       C  0.83335183  0.95170017  0.29797360    -0.22100
C1323       C  0.80045626  0.92375562  0.32076335    -0.22400
C1324       C  0.75560227  0.95426406  0.32720127     0.00600
H1325       H  0.87526573  0.94343487  0.29475275     0.14400
H1326       H  0.81287675  0.89125961  0.33702266     0.14500
O1327       O  0.73574497  0.64869507  0.47538113    -0.71300
O1328       O  0.99039722  0.72814809  0.40936022    -0.72300
O1329       O  0.00280390  0.70378123  0.48496479    -0.60900
O1330       O  0.72759103  0.67390661  0.39945669    -0.69300
O1331       O  0.70811212  0.92552830  0.38075855    -0.68900
O1332       O  0.94169821  0.00710808  0.48352123    -0.60100
O1333       O  0.92597931  0.00329385  0.40197672    -0.72600
O1334       O  0.72859047  0.91997164  0.45965949    -0.71400
Cu1335     Cu  0.68244271  0.68279090  0.44665354     1.04600
Cu1336     Cu  0.66834593  0.94409542  0.42882469     1.04300
C1337       C  0.76191625  0.95429691  0.47135129     0.94900
C1338       C  0.92016710  0.05005681  0.39050763     0.94000
C1339       C  0.94276770  0.05158053  0.50171968     0.86200
C1340       C  0.73297737  0.96226726  0.36529485     0.92400
N1341       N  0.97111801  0.96290369  0.73018050    -0.01800
C1342       C  0.91924468  0.96019491  0.74293629     0.00700
C1343       C  0.89803996  0.01124054  0.74319605    -0.22100
C1344       C  0.93199221  0.04099961  0.72252382    -0.22400
C1345       C  0.97506904  0.00910905  0.71351172     0.00600
H1346       H  0.85697367  0.02198848  0.74858824     0.14400
H1347       H  0.92236437  0.07806498  0.71051157     0.14500
O1348       O  0.69111117  0.69043746  0.59131618    -0.71300
O1349       O  0.81008700  0.64552494  0.65808982    -0.72300
O1350       O  0.79745642  0.65692988  0.57634124    -0.60900
O1351       O  0.70860316  0.68594620  0.66814899    -0.69300
O1352       O  0.65572300  0.96396439  0.66276936    -0.68900
O1353       O  0.73941801  0.94703237  0.56703634    -0.60100
O1354       O  0.75208771  0.91716111  0.64157058    -0.72600
O1355       O  0.64279364  0.99190028  0.58643877    -0.71400
Cu1356     Cu  0.75396772  0.67273834  0.62322503     1.04600
Cu1357     Cu  0.69562769  0.95261608  0.61404022     1.04300
C1358       C  0.99450281  0.06274800  0.58220438     0.94900
C1359       C  0.78586870  0.94510291  0.65928324     0.94000
C1360       C  0.76970988  0.98503441  0.55919587     0.86200
C1361       C  0.66115478  0.00410698  0.68575362     0.92400
N1362       N  0.83030257  0.93000155  0.71902173    -0.01800
C1363       C  0.88239225  0.91806311  0.72640524     0.00700
C1364       C  0.90359493  0.88882139  0.69529168    -0.22100
C1365       C  0.86858016  0.89216262  0.66663561    -0.22400
C1366       C  0.82514574  0.91910146  0.68180010     0.00600
H1367       H  0.94462675  0.87721843  0.69089237     0.14400
H1368       H  0.87654373  0.88150564  0.63722775     0.14500
N1369       N  0.92197717  0.05597323  0.53977221    -0.01800
C1370       C  0.94439125  0.08366959  0.56905752     0.00700
C1371       C  0.90894078  0.08439640  0.59925052    -0.22100
C1372       C  0.87511128  0.04321148  0.59185516    -0.22400
C1373       C  0.88433792  0.02541869  0.55503944     0.00600
H1374       H  0.91706458  0.09932922  0.62760931     0.14400
H1375       H  0.85213595  0.02425120  0.61282645     0.14500
N1376       N  0.73219298  0.83038988  0.81823838    -0.01800
C1377       C  0.72643922  0.77807346  0.80572996     0.00700
C1378       C  0.67948030  0.75982725  0.82139907    -0.22100
C1379       C  0.66459275  0.79522571  0.85047487    -0.22400
C1380       C  0.69946130  0.83635948  0.84920399     0.00600
H1381       H  0.66537565  0.71955677  0.81891903     0.14400
H1382       H  0.63584733  0.78853274  0.87258272     0.14500
C1383       C  0.73649900  0.87648732  0.79330474     0.88100
C1384       C  0.78066673  0.87454017  0.76295413    -0.52100
C1385       C  0.78479314  0.92024246  0.74382300     0.11000
C1386       C  0.73974273  0.96205214  0.75483320     0.22000
C1387       C  0.74899366  0.92823561  0.81569333    -0.52800
C1388       C  0.74830153  0.97426708  0.79700994     0.11100
C1389       C  0.68466122  0.88790593  0.77324739    -0.52400
C1390       C  0.68481583  0.93239812  0.75335374     0.11700
H1391       H  0.80886174  0.84212275  0.75902244     0.16200
H1392       H  0.74792309  0.66504572  0.74694201     0.02000
H1393       H  0.76865294  0.92504682  0.84144117     0.16500
H1394       H  0.98106806  0.87043597  0.76683767     0.16300
N1395       N  0.76626505  0.69151215  0.82397615    -0.01800
C1396       C  0.77277498  0.73969023  0.80830412     0.00700
C1397       C  0.81806752  0.76251968  0.82362608    -0.22100
C1398       C  0.83167184  0.73444279  0.85395334    -0.22400
C1399       C  0.79747281  0.69273105  0.85455730     0.00600
H1400       H  0.83187328  0.80216505  0.81955317     0.14400
H1401       H  0.85842323  0.74727917  0.87581274     0.14500
N1402       N  0.61854229  0.92858570  0.23629377    -0.02200
C1403       C  0.62101045  0.87960278  0.25068197     0.00700
C1404       C  0.58107571  0.84937173  0.23387873    -0.22100
C1405       C  0.56280956  0.87615912  0.20425554    -0.22400
C1406       C  0.58933037  0.92321689  0.20499851     0.00600
H1407       H  0.57557606  0.80730254  0.23556269     0.14400
H1408       H  0.54141738  0.85855325  0.18083808     0.14500
O1409       O  0.80813359  0.97297350  0.89640451    -0.71300
O1410       O  0.74354582  0.89480863  0.97893101    -0.72300
O1411       O  0.75372692  0.87408705  0.89790537    -0.60900
O1412       O  0.81572417  0.64292759  0.98152857    -0.69300
O1413       O  0.73422077  0.67596720  0.98120391    -0.68900
O1414       O  0.67502749  0.91076981  0.89065486    -0.60100
O1415       O  0.66358197  0.92696003  0.97027770    -0.72600
O1416       O  0.72893564  0.00895974  0.88886621    -0.71400
Cu1417     Cu  0.77791383  0.93095699  0.93716297     1.04600
Cu1418     Cu  0.69309717  0.96900318  0.92915282     1.04300
C1419       C  0.78371602  0.66517288  0.88889071     0.94900
C1420       C  0.69465488  0.89770514  0.98778517     0.94000
C1421       C  0.70907146  0.87467962  0.88149664     0.86200
C1422       C  0.78159839  0.67792578  0.99275437     0.92400
N1423       N  0.67832001  0.79956985  0.24165246    -0.01800
C1424       C  0.67349567  0.85152937  0.25464742     0.00700
C1425       C  0.71768161  0.87828859  0.24166200    -0.22100
C1426       C  0.74246519  0.84611805  0.21428908    -0.22400
C1427       C  0.71602966  0.79907338  0.21360593     0.00600
H1428       H  0.72444422  0.92030631  0.24454150     0.14400
H1429       H  0.77131100  0.85841409  0.19376120     0.14500
O1430       O  0.91741778  0.99351267  0.07753612    -0.71300
O1431       O  0.98029396  0.76402904  0.15537803    -0.72300
O1432       O  0.98436610  0.74357380  0.07380119    -0.60900
O1433       O  0.92107127  0.00286840  0.15745620    -0.69300
O1434       O  0.65851189  0.93993555  0.16256977    -0.68900
O1435       O  0.77155578  0.71393125  0.08900982    -0.60100
O1436       O  0.75143195  0.73200942  0.16993891    -0.72600
O1437       O  0.67797007  0.91944743  0.08471572    -0.71400
Cu1438     Cu  0.94979194  0.70972268  0.11668019     1.04600
Cu1439     Cu  0.74076184  0.67307436  0.13050433     1.04300
C1440       C  0.63524897  0.91733300  0.06637646     0.94900
C1441       C  0.71339261  0.76380468  0.17906563     0.94000
C1442       C  0.74019378  0.73889522  0.06868969     0.86200
C1443       C  0.60908383  0.94493615  0.17020814     0.92400
N1444       N  0.67381223  0.86385555  0.01503961    -0.01800
C1445       C  0.63113555  0.87474172  0.03736966     0.00700
C1446       C  0.60718857  0.82781262  0.04541894    -0.22100
C1447       C  0.63728862  0.78760674  0.02775181    -0.22400
C1448       C  0.68133694  0.81138072  0.01278911     0.00600
H1449       H  0.57612249  0.82269456  0.06621767     0.14400
H1450       H  0.63120541  0.74570014  0.03024982     0.14500
N1451       N  0.75797602  0.75431571  0.03208352    -0.01800
C1452       C  0.79685293  0.72864059  0.01121284     0.00700
C1453       C  0.81138589  0.76027966  0.98239333    -0.22100
C1454       C  0.76848647  0.79245832  0.97774781    -0.22400
C1455       C  0.73521944  0.78776179  0.00861935     0.00600
H1456       H  0.83879188  0.74891954  0.95947890     0.14400
H1457       H  0.75960621  0.81013305  0.95180894     0.14500
C1458       C  0.67254795  0.75274824  0.26548408     0.88100
C1459       C  0.72104568  0.74342306  0.28926909    -0.52100
C1460       C  0.71947530  0.69839596  0.30834266     0.11000
C1461       C  0.65248964  0.99181156  0.29245888     0.22000
C1462       C  0.66627968  0.70116799  0.24173151    -0.52800
C1463       C  0.63943638  0.97936584  0.25110985     0.11100
C1464       C  0.96017400  0.76247542  0.29012176    -0.52400
C1465       C  0.95266356  0.71691183  0.30861788     0.11700
H1466       H  0.75567171  0.76840775  0.28862506     0.16200
H1467       H  0.65045980  0.95639033  0.30930287     0.02000
H1468       H  0.65535025  0.70518464  0.21373649     0.16500
H1469       H  0.93528526  0.79720259  0.29548179     0.16300
N1470       N  0.80722979  0.97793645  0.52882456    -0.01800
C1471       C  0.80051635  0.94259679  0.49962604     0.00700
C1472       C  0.84731191  0.91582419  0.49108537    -0.22100
C1473       C  0.88402724  0.93699326  0.51564782    -0.22400
C1474       C  0.85890954  0.97847592  0.53612405     0.00600
H1475       H  0.85555440  0.88868363  0.46709350     0.14400
H1476       H  0.92567906  0.92702620  0.51546183     0.14500
loop_ 
_geom_bond_atom_site_label_1 
_geom_bond_atom_site_label_2 
_geom_bond_distance 
_geom_bond_site_symmetry_2 
_ccdc_geom_bond_type 
N1            C2   1.386       .  A
N1          C333   1.356       .  A
N1          C153   1.465       .  S
C2            C9   1.528       .  S
C2          C331   1.393       .  A
C3            C4   1.374       .  A
C3          C166   1.393       .  A
C3            H6   1.083       .  S
C4            C5   1.374       .  A
C4            H7   1.082       .  S
C5          N165   1.354       .  A
C5           C26   1.468       .  S
N8            C9   1.382       .  A
N8          C340   1.330   1_545  A
N8          C148   1.469       .  S
C9          C338   1.397   1_545  A
C10          C11   1.378       .  A
C10         C173   1.396       .  A
C10          H13   1.083       .  S
C11          C12   1.373       .  A
C11          H14   1.082       .  S
C12         N172   1.343       .  A
C12          C28   1.461       .  S
O15         Cu23   1.922       .  S
O15         C353   1.269       .  A
O16        Cu515   2.004       .  S
O16         C354   1.274       .  A
O17        Cu515   1.972       .  S
O17         C355   1.272       .  A
O18         Cu23   2.015       .  S
O18         C356   1.285       .  A
O19         Cu24   1.990   1_455  S
O19          C28   1.271       .  A
O20        Cu516   2.033       .  S
O20          C27   1.279       .  A
O21        Cu516   2.021       .  S
O21          C26   1.281       .  A
O22         Cu24   2.000   1_455  S
O22          C25   1.274       .  A
Cu23       O1000   1.974   1_455  S
Cu23       O1001   2.020   1_455  S
Cu23       Cu352   2.375   1_445  S
Cu24       O1004   1.998       .  S
Cu24       O1005   2.004       .  S
Cu24       Cu187   2.374   1_655  S
C25         C159   1.455       .  S
C25         O179   1.277       .  A
C26         O180   1.273       .  A
C27         O181   1.277       .  A
C27          N57   1.448       .  S
C28         O182   1.282       .  A
N29          C33   1.343       .  A
N29          C30   1.382       .  A
N29         C570   1.470       .  S
C30          C51   1.529       .  S
C30          C31   1.396       .  A
C31          C32   1.381       .  A
C31          H34   1.083       .  S
C32          C33   1.374       .  A
C32          H35   1.082       .  S
C33         C541   1.463       .  S
O36         Cu44   2.031       .  S
O36        C1358   1.279   1_455  A
O37         Cu44   2.045       .  S
O37         C375   1.284   1_545  A
O38         Cu44   2.004       .  S
O38         C376   1.277       .  A
O39         Cu44   1.991       .  S
O39         C377   1.271       .  A
O40         Cu45   1.990   1_655  S
O40          C49   1.279       .  A
O41         Cu45   1.974       .  S
O41          C48   1.273       .  A
O42         Cu45   1.951       .  S
O42          C47   1.266       .  A
O43         Cu45   1.904   1_655  S
O43        C1030   1.272       .  A
Cu44       Cu373   2.374   1_545  S
Cu45       Cu208   2.379       .  S
C46          C58   1.441       .  S
C46         O692   1.269       .  A
C46         O535   1.275       .  A
C47          C54   1.460       .  S
C47         O201   1.287       .  A
C48         O202   1.283       .  A
C48         N158   1.433       .  S
C49        C1017   1.463       .  S
C49         O203   1.273   1_655  A
N50          C54   1.356       .  A
N50          C51   1.391       .  A
N50          C73   1.476       .  S
C51          C52   1.394       .  A
C52          C53   1.368       .  A
C52          H55   1.082       .  S
C53          C54   1.371       .  A
C53          H56   1.083       .  S
N57          C61   1.356       .  A
N57          C58   1.357       .  A
C58          C59   1.384       .  A
C59          C60   1.365       .  A
C59          H62   1.085       .  S
C60          C61   1.374       .  A
C60          H63   1.074       .  S
C61         C162   1.463       .  S
N64          C68   1.373       .  A
N64          C65   1.388       .  A
N64          C71   1.509       .  S
C65          C84   1.534       .  S
C65          C66   1.396       .  A
C66          C67   1.375   1_455  A
C66          H69   1.083   1_455  S
C67          C68   1.372   1_655  A
C67          H70   1.082       .  S
C68         C109   1.497       .  S
C71          C72   1.534       .  S
C71          C77   1.537       .  S
C71          C75   1.534       .  S
C72          H79   1.084       .  S
C72          C73   1.378       .  D
C73          C74   1.585       .  S
C74          C78   1.595       .  S
C74          C76   1.544       .  S
C74         H244   1.109       .  S
C75          H81   1.062       .  S
C75          C76   1.384       .  D
C76         N247   1.484       .  S
C77        H1066   1.085   1_455  S
C77          C78   1.362       .  D
C78        N1013   1.475   1_455  S
H80         C402   1.108   1_545  S
H82         C569   1.085       .  S
N83          C87   1.347       .  A
N83          C84   1.380       .  A
N83         C404   1.480   1_545  S
C84          C85   1.400       .  A
C85          C86   1.380       .  A
C85          H88   1.082       .  S
C86          C87   1.371       .  A
C86          H89   1.082       .  S
C87         C107   1.468       .  S
N90          C94   1.356       .  A
N90          C91   1.377       .  A
N90         C151   1.476       .  S
C91         C112   1.523   1_655  S
C91          C92   1.399       .  A
C92          C93   1.377       .  A
C92          H95   1.081       .  S
C93          C94   1.370       .  A
C93          H96   1.082       .  S
C94         C131   1.472       .  S
O97        Cu105   2.041       .  S
O97         C271   1.281       .  A
O98        Cu105   2.040       .  S
O98         C108   1.285       .  A
O99        Cu105   2.062       .  S
O99         C109   1.285       .  A
O100       Cu433   2.022       .  S
O100        C110   1.277   1_565  A
O101       Cu434   1.927   1_445  S
O101        C110   1.271       .  A
O102       Cu106   2.033   1_655  S
O102        C109   1.278   1_655  A
O103       Cu106   1.951   1_655  S
O103        C108   1.269   1_655  A
O104       Cu106   1.979       .  S
O104        C271   1.274       .  A
Cu105       O264   1.987       .  S
Cu105      Cu106   2.378       .  S
Cu106       O265   1.958       .  S
C107        O425   1.269   1_545  A
C107        O432   1.286       .  A
C108        N132   1.429   1_456  S
C110        C140   1.452       .  S
N111        C115   1.368   1_655  A
N111        C112   1.382   1_655  A
N111        C146   1.513       .  S
C112        C113   1.395       .  A
C113        C114   1.376       .  A
C113        H116   1.083       .  S
C114        C115   1.372       .  A
C114        H117   1.082       .  S
C115        C129   1.493       .  S
O118       Cu290   1.997       .  S
O118        C620   1.271       .  A
O119       Cu126   2.091       .  S
O119        C621   1.292       .  A
O120       Cu126   2.024       .  S
O120        C622   1.282       .  A
O121       Cu290   2.020       .  S
O121        C623   1.277       .  A
O122       Cu291   2.005       .  S
O122        C131   1.279   1_455  A
O123       Cu127   1.991       .  S
O123        C130   1.274       .  A
O124       Cu127   2.027       .  S
O124        C129   1.278       .  A
O125       Cu291   1.991       .  S
O125        C128   1.277   1_455  A
Cu126       O446   2.001   1_545  S
Cu126       O449   2.007   1_545  S
Cu126      Cu619   2.376   1_545  S
Cu127       O450   2.041   1_545  S
Cu127       O453   1.967   1_545  S
Cu127     Cu1110   2.371   1_455  S
C128        C133   1.451       .  S
C128       O1102   1.272       .  A
C129       O1103   1.285   1_455  A
C130       O1104   1.278   1_455  A
C130        N139   1.441       .  S
C131       O1105   1.279       .  A
N132        C136   1.337       .  A
N132        C133   1.342       .  A
C133        C134   1.383       .  A
C134        C135   1.379       .  A
C134        H137   1.083       .  S
C135        C136   1.381       .  A
C135        H138   1.079       .  S
C136        C143   1.456   1_554  S
N139        C143   1.351   1_454  A
N139        C140   1.358   1_554  A
C140        C141   1.388       .  A
C141        C142   1.368       .  A
C141        H144   1.084       .  S
C142        C143   1.374   1_455  A
C142        H145   1.080   1_455  S
C146        C147   1.531   1_655  S
C146        C150   1.541       .  S
C146       C1136   1.541       .  S
C147        H154   1.086       .  S
C147        C148   1.362       .  D
C148        C477   1.608   1_455  S
C149        C151   1.539       .  S
C149        C312   1.593   1_655  S
C149       C1301   1.576       .  S
C149        H155   1.108       .  S
C150        H156   1.033       .  S
C150        C479   1.371   1_545  D
C151        C314   1.375       .  D
C152        C638   1.530       .  S
C152        H157   1.085       .  S
C152        C153   1.373       .  D
C153        C969   1.577       .  S
N158        C162   1.339       .  A
N158        C159   1.343       .  A
C159        C160   1.383       .  A
C160        C161   1.382       .  A
C160        H163   1.080       .  S
C161        C162   1.381       .  A
C161        H164   1.081       .  S
N165        C166   1.382       .  A
N165        C317   1.469       .  S
C166        C173   1.524       .  S
C167        C330   1.393       .  A
C167        C168   1.375       .  A
C167        H170   1.082       .  S
C168        C169   1.373       .  A
C168        H171   1.082       .  S
C169        N329   1.352       .  A
C169        C190   1.467       .  S
N172        C173   1.381       .  A
N172        C312   1.470       .  S
C174        C337   1.395       .  A
C174        C175   1.379       .  A
C174        H177   1.082       .  S
C175        C176   1.377       .  A
C175        H178   1.083       .  S
C176        N336   1.349       .  A
C176        C192   1.464       .  S
O179       Cu187   1.985       .  S
O180       Cu679   2.000       .  S
O181       Cu679   2.004       .  S
O182       Cu187   2.016       .  S
O183       Cu188   2.009   1_455  S
O183        C192   1.274       .  A
O184       Cu680   2.034       .  S
O184        C191   1.279       .  A
O185       Cu680   2.017       .  S
O185        C190   1.280       .  A
O186       Cu188   1.989   1_455  S
O186        C189   1.271       .  A
Cu187      O1164   2.004   1_455  S
Cu187      O1165   2.016   1_455  S
Cu188      O1168   2.013       .  S
Cu188      O1169   2.010       .  S
Cu188      Cu351   2.379   1_655  S
C189        C323   1.449       .  S
C189        O343   1.277       .  A
C190        O344   1.274       .  A
C191        O345   1.276       .  A
C191        N221   1.449       .  S
C192        O346   1.279       .  A
N193        C197   1.348       .  A
N193        C194   1.385       .  A
N193        C734   1.479       .  S
C194        C215   1.532       .  S
C194        C195   1.396       .  A
C195        C196   1.379       .  A
C195        H198   1.083       .  S
C196        C197   1.373       .  A
C196        H199   1.083       .  S
C197        C705   1.461       .  S
O200       Cu208   2.017   1_655  S
O200       C1030   1.274       .  A
O201       Cu208   2.055       .  S
O202       Cu208   2.035       .  S
O203       Cu208   2.009       .  S
O204       Cu209   1.989   1_655  S
O204        C213   1.277   1_655  A
O205       Cu209   1.996       .  S
O205        C212   1.273       .  A
O206       Cu209   2.008       .  S
O206        C211   1.275       .  A
O207       Cu209   1.992   1_655  S
O207       C1194   1.279       .  A
Cu209      Cu372   2.377       .  S
C210        C222   1.446       .  S
C210        O856   1.271       .  A
C210        O699   1.276       .  A
C211        C218   1.469       .  S
C211        O365   1.279       .  A
C212        O366   1.283       .  A
C212        N322   1.445       .  S
C213       C1181   1.466   1_455  S
C213        O367   1.276       .  A
N214        C218   1.351       .  A
N214        C215   1.388       .  A
N214        C237   1.461       .  S
C215        C216   1.392       .  A
C216        C217   1.376       .  A
C216        H219   1.082       .  S
C217        C218   1.373       .  A
C217        H220   1.082       .  S
N221        C225   1.356       .  A
N221        C222   1.359       .  A
C222        C223   1.384       .  A
C223        C224   1.365       .  A
C223        H226   1.085       .  S
C224        C225   1.369       .  A
C224        H227   1.070       .  S
C225        C326   1.465       .  S
N228        C232   1.368       .  A
N228        C229   1.390       .  A
N228        C235   1.506       .  S
C229        C248   1.534       .  S
C229        C230   1.394       .  A
C230        C231   1.378   1_455  A
C230        H233   1.083   1_455  S
C231        C232   1.374   1_655  A
C231        H234   1.082       .  S
C232        C273   1.497       .  S
C235        C236   1.528       .  S
C235        C241   1.541       .  S
C235        C239   1.538       .  S
C236        H243   1.085       .  S
C236        C237   1.374       .  D
C237        C238   1.577       .  S
C238        C242   1.581       .  S
C238        C240   1.537       .  S
C238        H408   1.109       .  S
C239        H245   1.066       .  S
C239        C240   1.378       .  D
C240        N411   1.471       .  S
C241       H1230   1.084   1_455  S
C241        C242   1.368       .  D
C242       N1177   1.476   1_455  S
H246        C733   1.085       .  S
N247        C251   1.356       .  A
N247        C248   1.384       .  A
C248        C249   1.398       .  A
C249        C250   1.379       .  A
C249        H252   1.082       .  S
C250        C251   1.371       .  A
C250        H253   1.082       .  S
C251        C271   1.473       .  S
N254        C258   1.354       .  A
N254        C255   1.375       .  A
N254        C315   1.473       .  S
C255        C276   1.520   1_655  S
C255        C256   1.399       .  A
C256        C257   1.376       .  A
C256        H259   1.081       .  S
C257        C258   1.371       .  A
C257        H260   1.083       .  S
C258        C295   1.467       .  S
O261       Cu269   2.014       .  S
O261        C435   1.276       .  A
O262       Cu269   2.020       .  S
O262        C272   1.279       .  A
O263       Cu269   2.059       .  S
O263        C273   1.284       .  A
O264        C274   1.270       .  A
O265        C274   1.279       .  A
O266       Cu270   2.038       .  S
O266        C273   1.278       .  A
O267       Cu270   1.997   1_655  S
O267        C272   1.274   1_655  A
O268       Cu270   2.003       .  S
O268        C435   1.279       .  A
Cu269       O428   1.997       .  S
Cu269      Cu270   2.374       .  S
Cu270       O429   1.998       .  S
C272        N296   1.438   1_456  S
C274        C304   1.453   1_556  S
N275        C279   1.370       .  A
N275        C276   1.378       .  A
N275        C310   1.507   1_455  S
C276        C277   1.395       .  A
C277        C278   1.376       .  A
C277        H280   1.082       .  S
C278        C279   1.373       .  A
C278        H281   1.082       .  S
C279        C293   1.493       .  S
O282       Cu454   2.003       .  S
O282        C784   1.274       .  A
O283       Cu290   2.086       .  S
O283        C785   1.290       .  A
O284       Cu290   2.050       .  S
O284        C786   1.286       .  A
O285       Cu454   1.981       .  S
O285        C787   1.270       .  A
O286       Cu455   2.011   1_655  S
O286        C295   1.280       .  A
O287       Cu291   2.003       .  S
O287        C294   1.276       .  A
O288       Cu291   2.052       .  S
O288        C293   1.281       .  A
O289       Cu455   1.975       .  S
O289        C292   1.277   1_455  A
Cu290      Cu783   2.375       .  S
Cu291     Cu1274   2.371   1_455  S
C292        C297   1.447       .  S
C292       O1266   1.271       .  A
C293       O1267   1.281   1_455  A
C294       O1268   1.277   1_455  A
C294        N303   1.449       .  S
C295       O1269   1.275       .  A
N296        C300   1.341       .  A
N296        C297   1.346       .  A
C297        C298   1.379       .  A
C298        C299   1.378       .  A
C298        H301   1.083       .  S
C299        C300   1.379       .  A
C299        H302   1.081       .  S
C300        C307   1.470   1_655  S
N303        C307   1.358       .  A
N303        C304   1.357       .  A
C304        C305   1.384   1_554  A
C305        C306   1.365       .  A
C305        H308   1.085       .  S
C306        C307   1.373   1_556  A
C306        H309   1.073       .  S
C310        C311   1.533   1_655  S
C310       C1300   1.541       .  S
C310        C314   1.526       .  S
C311        H318   1.086       .  S
C311        C312   1.363       .  D
C313        C476   1.580   1_655  S
C313       C1465   1.573       .  S
C313        C315   1.535       .  S
C313        H319   1.109       .  S
C314        H320   1.047       .  S
C315        C478   1.377       .  D
C316        C802   1.541       .  S
C316        H321   1.084       .  S
C316        C317   1.379       .  D
C317        C641   1.575       .  S
N322        C326   1.343       .  A
N322        C323   1.347       .  A
C323        C324   1.383       .  A
C324        C325   1.378       .  A
C324        H327   1.082       .  S
C325        C326   1.381       .  A
C325        H328   1.082       .  S
N329        C330   1.380       .  A
N329        C481   1.462       .  S
C330        C337   1.519       .  S
C331        C332   1.374       .  A
C331        H334   1.083       .  S
C332        C333   1.372       .  A
C332        H335   1.079       .  S
C333        C354   1.473       .  S
N336        C337   1.377       .  A
N336        C476   1.473       .  S
C338        C339   1.378       .  A
C338        H341   1.083       .  S
C339        C340   1.372       .  A
C339        H342   1.082       .  S
C340        C356   1.446   1_565  S
O343       Cu351   1.978       .  S
O344       Cu843   2.007       .  S
O345       Cu843   2.002       .  S
O346       Cu351   1.993       .  S
O347       Cu352   1.946   1_455  S
O347        C356   1.264   1_565  A
O348       Cu844   2.046       .  S
O348        C355   1.286   1_565  A
O349       Cu844   2.034   1_545  S
O349        C354   1.282       .  A
O350       Cu352   2.020   1_455  S
O350        C353   1.277   1_565  A
Cu351      O1328   1.999   1_455  S
Cu351      O1329   1.989       .  S
Cu352      O1332   1.975   1_565  S
Cu352      O1333   2.042   1_565  S
C353        C487   1.447       .  S
C355        N385   1.435       .  S
N357        C361   1.344   1_565  A
N357        C358   1.380       .  A
N357        C898   1.470       .  S
C358        C379   1.525       .  S
C358        C359   1.397   1_565  A
C359        C360   1.380       .  A
C359        H362   1.083       .  S
C360        C361   1.373       .  A
C360        H363   1.082       .  S
C361        C869   1.461   1_545  S
O364       Cu372   1.997       .  S
O364       C1194   1.272   1_455  A
O365       Cu372   2.019       .  S
O366       Cu372   2.044       .  S
O367       Cu372   2.019       .  S
O368       Cu373   2.021       .  S
O368        C377   1.282   1_565  A
O369       Cu373   2.005       .  S
O369        C376   1.277   1_565  A
O370       Cu373   1.982       .  S
O370        C375   1.271       .  A
O371       Cu373   1.958   1_645  S
O371       C1358   1.274       .  A
C374        C386   1.457       .  S
C374        O528   1.273       .  A
C374        O863   1.278   1_545  A
C375        C382   1.470       .  S
C376        N486   1.440       .  S
C377       C1345   1.464   1_455  S
N378        C382   1.357       .  A
N378        C379   1.387       .  A
N378        C401   1.476       .  S
C379        C380   1.393       .  A
C380        C381   1.371       .  A
C380        H383   1.083       .  S
C381        C382   1.373       .  A
C381        H384   1.082       .  S
N385        C389   1.339       .  A
N385        C386   1.347       .  A
C386        C387   1.385       .  A
C387        C388   1.380       .  A
C387        H390   1.083       .  S
C388        C389   1.380       .  A
C388        H391   1.082       .  S
C389        C490   1.455       .  S
N392        C396   1.372       .  A
N392        C393   1.379       .  A
N392        C399   1.511       .  S
C393        C412   1.521       .  S
C393        C394   1.395       .  A
C394        C395   1.373   1_455  A
C394        H397   1.081       .  S
C395        C396   1.371   1_655  A
C395        H398   1.082       .  S
C396        C437   1.494       .  S
C399        C400   1.538       .  S
C399        C405   1.544       .  S
C399        C403   1.526       .  S
C400        H407   1.084       .  S
C400        C401   1.377       .  D
C401        C402   1.583       .  S
C402        C406   1.590       .  S
C402        C404   1.542       .  S
C403        H409   1.061       .  S
C403        C404   1.381       .  D
C405       H1394   1.085   1_455  S
C405        C406   1.370       .  D
C406       N1341   1.475   1_455  S
H410        C897   1.085       .  S
N411        C415   1.353       .  A
N411        C412   1.374       .  A
C412        C413   1.398       .  A
C413        C414   1.377       .  A
C413        H416   1.081       .  S
C414        C415   1.372       .  A
C414        H417   1.082       .  S
C415        C435   1.469       .  S
N418        C422   1.364       .  A
N418        C419   1.386       .  A
N418        C479   1.486       .  S
C419        C440   1.533   1_655  S
C419        C420   1.398       .  A
C420        C421   1.375       .  A
C420        H423   1.081       .  S
C421        C422   1.370       .  A
C421        H424   1.082       .  S
C422        C459   1.486       .  S
O425       Cu433   1.980       .  S
O426       Cu433   1.993       .  S
O426        C436   1.271   1_455  A
O427       Cu433   2.070       .  S
O427        C437   1.288       .  A
O428        C438   1.272       .  A
O429        C438   1.280       .  A
O430       Cu434   2.010       .  S
O430        C437   1.273   1_655  A
O431       Cu434   2.025       .  S
O431        C436   1.279       .  A
O432       Cu434   2.040   1_445  S
Cu433      Cu434   2.370   1_455  S
C436        N460   1.450   1_556  S
C438        C468   1.459   1_556  S
N439        C443   1.366       .  A
N439        C440   1.388       .  A
N439        C474   1.512       .  S
C440        C441   1.395       .  A
C441        C442   1.376       .  A
C441        H444   1.083       .  S
C442        C443   1.373       .  A
C442        H445   1.082       .  S
C443        C457   1.491       .  S
O446        C948   1.272       .  A
O447       Cu454   2.102       .  S
O447        C949   1.294       .  A
O448       Cu454   2.008       .  S
O448        C950   1.279       .  A
O449        C951   1.274       .  A
O450        C459   1.284   1_455  A
O451       Cu455   1.993       .  S
O451        C458   1.274       .  A
O452       Cu455   2.024       .  S
O452        C457   1.276       .  A
O453        C456   1.278   1_455  A
Cu454      Cu947   2.378       .  S
Cu455     Cu1438   2.376   1_455  S
C456        C461   1.469       .  S
C456       O1430   1.276       .  A
C457       O1431   1.285   1_455  A
C458       O1432   1.272   1_455  A
C458        N467   1.429       .  S
C459       O1433   1.278   1_565  A
N460        C464   1.359   1_655  A
N460        C461   1.363       .  A
C461        C462   1.385       .  A
C462        C463   1.370       .  A
C462        H465   1.085       .  S
C463        C464   1.380   1_655  A
C463        H466   1.078       .  S
C464        C471   1.484       .  S
N467        C471   1.339       .  A
N467        C468   1.344       .  A
C468        C469   1.382       .  A
C469        C470   1.382       .  A
C469        H472   1.082   1_554  S
C470        C471   1.384       .  A
C470        H473   1.082       .  S
C474        C475   1.546       .  S
C474       C1464   1.531   1_455  S
C474        C478   1.539   1_455  S
C475        H482   1.085       .  S
C475        C476   1.370       .  D
C477       C1137   1.585       .  S
C477        C479   1.546   1_545  S
C477        H483   1.109   1_545  S
C478        H484   1.060       .  S
C480        C966   1.531       .  S
C480        H485   1.085       .  S
C480        C481   1.374       .  D
C481        C805   1.571       .  S
N486        C490   1.352       .  A
N486        C487   1.354       .  A
C487        C488   1.387       .  A
C488        C489   1.365       .  A
C488        H491   1.084       .  S
C489        C490   1.374       .  A
C489        H492   1.080       .  S
N493        C825   1.349       .  A
N493        C494   1.387       .  A
N493        C645   1.461       .  S
C494        C501   1.525   1_545  S
C494        C823   1.392       .  A
C495        C658   1.395       .  A
C495        C496   1.373       .  A
C495        H498   1.083       .  S
C496        C497   1.373       .  A
C496        H499   1.083       .  S
C497        N657   1.351       .  A
C497        C518   1.464       .  S
N500        C832   1.349   1_545  A
N500        C501   1.380   1_545  A
N500        C640   1.473       .  S
C501        C830   1.396       .  A
C502        C665   1.395       .  A
C502        C503   1.378       .  A
C502        H505   1.083       .  S
C503        C504   1.374       .  A
C503        H506   1.083       .  S
C504        N664   1.350       .  A
C504        C520   1.468       .  S
O507       Cu515   1.950   1_565  S
O507        C845   1.278       .  A
O508      Cu1007   1.991       .  S
O508        C846   1.271       .  A
O509      Cu1007   2.011       .  S
O509        C847   1.276       .  A
O510       Cu515   1.974       .  S
O510        C848   1.275   1_545  A
O511       Cu516   2.017       .  S
O511        C520   1.276       .  A
O512      Cu1008   2.010       .  S
O512        C519   1.276       .  A
O513      Cu1008   2.034       .  S
O513        C518   1.283       .  A
O514       Cu516   2.015       .  S
O514        C517   1.276       .  A
Cu515      Cu844   2.379   1_545  S
Cu516      Cu679   2.374       .  S
C517        C651   1.460       .  S
C517        O671   1.276       .  A
C518        O672   1.270       .  A
C519        O673   1.279       .  A
C519        N549   1.445       .  S
C520        O674   1.278       .  A
N521        C525   1.338       .  A
N521        C522   1.379       .  A
N521       C1062   1.467       .  S
C522        C543   1.524       .  S
C522        C523   1.394       .  A
C523        C524   1.381       .  A
C523        H526   1.083       .  S
C524        C525   1.376       .  A
C524        H527   1.082       .  S
C525       C1033   1.460       .  S
O528       Cu536   1.992       .  S
O529       Cu536   1.998   1_565  S
O529        C867   1.276       .  A
O530       Cu536   2.023   1_565  S
O530        C868   1.278       .  A
O531       Cu536   2.015       .  S
O531        C869   1.276   1_545  A
O532       Cu537   1.990       .  S
O532        C541   1.278       .  A
O533       Cu537   1.985       .  S
O533        C540   1.273       .  A
O534       Cu537   1.985       .  S
O534        C539   1.271       .  A
O535       Cu537   1.925       .  S
Cu536      Cu865   2.374   1_545  S
Cu537      Cu700   2.382       .  S
C538        C550   1.443       .  S
C538       O1184   1.273       .  A
C538       O1027   1.271       .  A
C539        C546   1.466       .  S
C539        O693   1.282       .  A
C540        O694   1.285       .  A
C540        N650   1.438       .  S
C541        O695   1.274       .  A
N542        C546   1.357       .  A
N542        C543   1.385       .  A
N542        C565   1.467       .  S
C543        C544   1.394       .  A
C544        C545   1.371       .  A
C544        H547   1.082       .  S
C545        C546   1.372       .  A
C545        H548   1.082       .  S
N549        C553   1.360       .  A
N549        C550   1.358       .  A
C550        C551   1.381       .  A
C551        C552   1.370       .  A
C551        H554   1.084       .  S
C552        C553   1.375       .  A
C552        H555   1.080       .  S
C553        C654   1.468       .  S
N556        C560   1.368       .  A
N556        C557   1.383       .  A
N556        C563   1.513       .  S
C557        C576   1.528       .  S
C557        C558   1.394       .  A
C558        C559   1.378       .  A
C558        H561   1.083       .  S
C559        C560   1.374       .  A
C559        H562   1.082       .  S
C560        C601   1.495       .  S
C563        C564   1.532       .  S
C563        C569   1.544       .  S
C563        C567   1.533       .  S
C564        H571   1.084       .  S
C564        C565   1.373       .  D
C565        C566   1.578       .  S
C566        C570   1.589       .  S
C566        C568   1.540       .  S
C566        H736   1.109       .  S
C567        H573   1.042       .  S
C567        C568   1.374       .  D
C568        N739   1.481       .  S
C569        C570   1.372       .  D
H572        C894   1.107       .  S
H574       C1061   1.085       .  S
N575        C579   1.358       .  A
N575        C576   1.380       .  A
N575        C896   1.476   1_545  S
C576        C577   1.399       .  A
C577        C578   1.376       .  A
C577        H580   1.081       .  S
C578        C579   1.370       .  A
C578        H581   1.082       .  S
C579        C599   1.474   1_545  S
N582        C586   1.352       .  A
N582        C583   1.378       .  A
N582        C643   1.474       .  S
C583        C604   1.529       .  S
C583        C584   1.398       .  A
C584        C585   1.380       .  A
C584        H587   1.083       .  S
C585        C586   1.373       .  A
C585        H588   1.082       .  S
C586        C623   1.473       .  S
O589       Cu597   2.019       .  S
O589        C763   1.277       .  A
O590       Cu597   2.003       .  S
O590        C600   1.274       .  A
O591       Cu597   2.047       .  S
O591        C601   1.284       .  A
O592       Cu925   2.019       .  S
O592        C602   1.276   1_565  A
O593       Cu926   1.989   1_545  S
O593        C602   1.277       .  A
O594       Cu598   2.045       .  S
O594        C601   1.279       .  A
O595       Cu598   2.006       .  S
O595        C600   1.278       .  A
O596       Cu598   2.023       .  S
O596        C763   1.282       .  A
Cu597       O756   2.006       .  S
Cu597      Cu598   2.371       .  S
Cu598       O757   1.996       .  S
C599        O917   1.276       .  A
C599        O924   1.283       .  A
C600        N624   1.443   1_556  S
C602        C632   1.464   1_556  S
N603        C607   1.369       .  A
N603        C604   1.385       .  A
N603        C638   1.510       .  S
C604        C605   1.396       .  A
C605        C606   1.376       .  A
C605        H608   1.083       .  S
C606        C607   1.372       .  A
C606        H609   1.082       .  S
C607        C621   1.493       .  S
O610       Cu782   1.984       .  S
O610       C1112   1.270       .  A
O611       Cu618   2.065       .  S
O611       C1113   1.286       .  A
O612       Cu618   2.011       .  S
O612       C1114   1.277       .  A
O613       Cu782   2.034       .  S
O613       C1115   1.280       .  A
O614       Cu783   2.000       .  S
O614        C623   1.279       .  A
O615       Cu619   1.984   1_545  S
O615        C622   1.274       .  A
O616       Cu619   1.998   1_545  S
O616        C621   1.271       .  A
O617       Cu783   1.923       .  S
O617        C620   1.275       .  A
Cu618       O938   2.011   1_545  S
Cu618       O941   2.010   1_545  S
Cu618     Cu1111   2.376   1_545  S
Cu619       O942   2.009       .  S
Cu619       O945   1.914       .  S
C620        C625   1.452       .  S
C622        N631   1.433       .  S
N624        C628   1.359       .  A
N624        C625   1.358       .  A
C625        C626   1.386       .  A
C626        C627   1.370       .  A
C626        H629   1.085       .  S
C627        C628   1.375       .  A
C627        H630   1.077       .  S
C628        C635   1.473       .  S
N631        C635   1.339       .  A
N631        C632   1.346       .  A
C632        C633   1.387   1_554  A
C633        C634   1.385   1_556  A
C633        H636   1.083       .  S
C634        C635   1.382       .  A
C634        H637   1.082       .  S
C638        C639   1.553       .  S
C638        C642   1.533       .  S
C639        H646   1.085       .  S
C639        C640   1.374       .  D
C640        C969   1.579       .  S
C641        C804   1.580       .  S
C641        C643   1.540       .  S
C641        H647   1.108       .  S
C642        H648   1.066       .  S
C642        C971   1.383   1_545  D
C643        C806   1.379       .  D
C644       C1130   1.527       .  S
C644        H649   1.085       .  S
C644        C645   1.374       .  D
C645       C1461   1.571   1_545  S
N650        C654   1.343       .  A
N650        C651   1.347       .  A
C651        C652   1.384       .  A
C652        C653   1.384       .  A
C652        H655   1.081       .  S
C653        C654   1.381       .  A
C653        H656   1.082       .  S
N657        C658   1.386       .  A
N657        C809   1.473       .  S
C658        C665   1.526       .  S
C659        C822   1.392       .  A
C659        C660   1.370       .  A
C659        H662   1.083       .  S
C660        C661   1.373       .  A
C660        H663   1.082       .  S
C661        N821   1.356       .  A
C661        C682   1.466       .  S
N664        C665   1.382       .  A
N664        C804   1.474       .  S
C666        C829   1.395       .  A
C666        C667   1.379       .  A
C666        H669   1.083       .  S
C667        C668   1.374       .  A
C667        H670   1.082       .  S
C668        N828   1.347       .  A
C668        C684   1.466       .  S
O671       Cu679   1.988       .  S
O672      Cu1171   1.983       .  S
O673      Cu1171   2.015       .  S
O674       Cu679   2.001       .  S
O675       Cu680   2.018       .  S
O675        C684   1.276       .  A
O676      Cu1172   1.980       .  S
O676        C683   1.275       .  A
O677      Cu1172   2.040       .  S
O677        C682   1.284       .  A
O678       Cu680   2.014       .  S
O678        C681   1.276       .  A
Cu680      Cu843   2.373       .  S
C681        C815   1.464       .  S
C681        O835   1.277       .  A
C682        O836   1.270       .  A
C683        O837   1.274       .  A
C683        N713   1.435       .  S
C684        O838   1.278       .  A
N685        C689   1.337       .  A
N685        C686   1.380       .  A
N685       C1226   1.469       .  S
C686        C707   1.524       .  S
C686        C687   1.396       .  A
C687        C688   1.379       .  A
C687        H690   1.083       .  S
C688        C689   1.374       .  A
C688        H691   1.083       .  S
C689       C1197   1.459       .  S
O692       Cu700   1.978       .  S
O693       Cu700   2.032       .  S
O694       Cu700   2.043       .  S
O695       Cu700   2.010       .  S
O696       Cu701   1.969       .  S
O696        C705   1.275       .  A
O697       Cu701   1.959       .  S
O697        C704   1.270       .  A
O698       Cu701   1.992       .  S
O698        C703   1.273       .  A
O699       Cu701   1.936       .  S
Cu701      Cu864   2.381       .  S
C702        C714   1.456       .  S
C702       O1348   1.280       .  A
C702       O1191   1.267       .  A
C703        C710   1.470       .  S
C703        O857   1.283       .  A
C704        O858   1.285       .  A
C704        N814   1.428       .  S
C705        O859   1.277       .  A
N706        C710   1.359       .  A
N706        C707   1.387       .  A
N706        C729   1.471       .  S
C707        C708   1.393       .  A
C708        C709   1.370       .  A
C708        H711   1.083       .  S
C709        C710   1.372       .  A
C709        H712   1.082       .  S
N713        C717   1.352       .  A
N713        C714   1.359       .  A
C714        C715   1.391       .  A
C715        C716   1.373       .  A
C715        H718   1.084       .  S
C716        C717   1.371       .  A
C716        H719   1.078       .  S
C717        C818   1.467       .  S
N720        C724   1.374       .  A
N720        C721   1.388       .  A
N720        C727   1.524       .  S
C721        C740   1.534       .  S
C721        C722   1.394       .  A
C722        C723   1.376       .  A
C722        H725   1.083       .  S
C723        C724   1.373       .  A
C723        H726   1.082       .  S
C724        C765   1.506       .  S
C727        C728   1.536       .  S
C727        C733   1.553       .  S
C727        C731   1.539       .  S
C728        H735   1.082       .  S
C728        C729   1.371       .  D
C729        C730   1.573       .  S
C730        C734   1.596       .  S
C730        C732   1.542       .  S
C730        H900   1.109       .  S
C731        H737   1.025       .  S
C731        C732   1.369       .  D
C732        N903   1.478       .  S
C733        C734   1.380       .  D
H738       C1225   1.085       .  S
N739        C743   1.357       .  A
N739        C740   1.383       .  A
C740        C741   1.400       .  A
C741        C742   1.375       .  A
C741        H744   1.080       .  S
C742        C743   1.369       .  A
C742        H745   1.082       .  S
C743        C763   1.475       .  S
N746        C750   1.342       .  A
N746        C747   1.382       .  A
N746        C807   1.480       .  S
C747        C768   1.535       .  S
C747        C748   1.400       .  A
C748        C749   1.379       .  A
C748        H751   1.082       .  S
C749        C750   1.370       .  A
C749        H752   1.082       .  S
C750        C787   1.459       .  S
O753       Cu761   2.010       .  S
O753        C927   1.274       .  A
O754       Cu761   2.017       .  S
O754        C764   1.278   1_556  A
O755       Cu761   2.073       .  S
O755        C765   1.287       .  A
O756        C766   1.276       .  A
O757        C766   1.277       .  A
O758       Cu762   2.037       .  S
O758        C765   1.278       .  A
O759       Cu762   2.020       .  S
O759        C764   1.279   1_556  A
O760       Cu762   2.033       .  S
O760        C927   1.284       .  A
Cu761       O920   2.033       .  S
Cu761      Cu762   2.370       .  S
Cu762       O921   1.986       .  S
C764        N788   1.448       .  S
C766        C796   1.460   1_556  S
N767        C771   1.377       .  A
N767        C768   1.389       .  A
N767        C802   1.513       .  S
C768        C769   1.394       .  A
C769        C770   1.375       .  A
C769        H772   1.083       .  S
C770        C771   1.373       .  A
C770        H773   1.082       .  S
C771        C785   1.506       .  S
O774       Cu946   1.997       .  S
O774       C1276   1.273       .  A
O775       Cu782   2.060       .  S
O775       C1277   1.285       .  A
O776       Cu782   2.024       .  S
O776       C1278   1.283       .  A
O777       Cu946   2.005       .  S
O777       C1279   1.275       .  A
O778       Cu947   2.007       .  S
O778        C787   1.282       .  A
O779       Cu783   1.984       .  S
O779        C786   1.274       .  A
O780       Cu783   2.022       .  S
O780        C785   1.276       .  A
O781       Cu947   1.903       .  S
O781        C784   1.271       .  A
Cu782     Cu1275   2.378       .  S
C784        C789   1.443       .  S
C786        N795   1.440       .  S
N788        C792   1.357       .  A
N788        C789   1.357       .  A
C789        C790   1.386       .  A
C790        C791   1.367       .  A
C790        H793   1.084       .  S
C791        C792   1.377       .  A
C791        H794   1.082       .  S
C792        C799   1.458       .  S
N795        C799   1.340       .  A
N795        C796   1.350       .  A
C796        C797   1.387   1_554  A
C797        C798   1.381   1_556  A
C797        H800   1.083       .  S
C798        C799   1.380       .  A
C798        H801   1.082       .  S
C802        C803   1.550       .  S
C802        C806   1.530       .  S
C803        H810   1.085       .  S
C803        C804   1.371       .  D
C805        C968   1.580       .  S
C805        C807   1.530       .  S
C805        H811   1.107       .  S
C806        H812   1.067       .  S
C807        C970   1.389       .  D
C808       C1294   1.540       .  S
C808        H813   1.084       .  S
C808        C809   1.383       .  D
C809       C1133   1.582       .  S
N814        C818   1.336       .  A
N814        C815   1.348       .  A
C815        C816   1.385       .  A
C816        C817   1.383       .  A
C816        H819   1.083       .  S
C817        C818   1.384       .  A
C817        H820   1.082       .  S
N821        C822   1.391       .  A
N821        C973   1.478       .  S
C822        C829   1.527       .  S
C823        C824   1.374       .  A
C823        H826   1.082       .  S
C824        C825   1.370       .  A
C824        H827   1.079       .  S
C825        C846   1.468       .  S
N828        C829   1.382       .  A
N828        C968   1.476       .  S
C830        C831   1.381       .  A
C830        H833   1.083       .  S
C831        C832   1.376       .  A
C831        H834   1.083       .  S
C832        C848   1.466       .  S
O835       Cu843   1.997       .  S
O836      Cu1335   1.976       .  S
O837      Cu1335   1.995       .  S
O838       Cu843   1.997       .  S
O839       Cu844   2.030       .  S
O839        C848   1.278       .  A
O840      Cu1336   2.023       .  S
O840        C847   1.278   1_565  A
O841      Cu1336   2.040       .  S
O841        C846   1.282   1_565  A
O842       Cu844   2.001       .  S
O842        C845   1.272       .  A
C845        C979   1.459       .  S
C847        N877   1.441       .  S
N849        C853   1.347   1_565  A
N849        C850   1.379       .  A
N849       C1390   1.475       .  S
C850        C871   1.520       .  S
C850        C851   1.394       .  A
C851        C852   1.376   1_565  A
C851        H854   1.081   1_565  S
C852        C853   1.374       .  A
C852        H855   1.083       .  S
C853       C1361   1.458       .  S
O856       Cu864   1.988       .  S
O857       Cu864   2.035       .  S
O858       Cu864   2.038       .  S
O859       Cu864   2.019       .  S
O860       Cu865   1.981       .  S
O860        C869   1.276       .  A
O861       Cu865   1.995       .  S
O861        C868   1.275       .  A
O862       Cu865   2.034       .  S
O862        C867   1.279       .  A
O863       Cu865   2.002       .  S
C866        C878   1.460       .  S
C866       O1020   1.276       .  A
C866       O1355   1.276   1_545  A
C867        C874   1.471       .  S
C868        N978   1.446       .  S
N870        C874   1.354       .  A
N870        C871   1.380       .  A
N870        C893   1.462       .  S
C871        C872   1.390       .  A
C872        C873   1.377       .  A
C872        H875   1.082       .  S
C873        C874   1.377       .  A
C873        H876   1.082       .  S
N877        C881   1.342       .  A
N877        C878   1.351       .  A
C878        C879   1.383       .  A
C879        C880   1.380       .  A
C879        H882   1.082       .  S
C880        C881   1.383       .  A
C880        H883   1.082       .  S
C881        C982   1.479   1_545  S
N884        C888   1.368       .  A
N884        C885   1.383       .  A
N884        C891   1.515       .  S
C885        C904   1.526       .  S
C885        C886   1.394       .  A
C886        C887   1.377       .  A
C886        H889   1.083       .  S
C887        C888   1.374       .  A
C887        H890   1.082       .  S
C888        C929   1.493       .  S
C891        C892   1.532       .  S
C891        C897   1.548       .  S
C891        C895   1.540       .  S
C892        H899   1.082       .  S
C892        C893   1.365       .  D
C893        C894   1.567       .  S
C894        C898   1.588       .  S
C894        C896   1.531       .  S
C895        H901   1.035       .  S
C895        C896   1.368       .  D
C897        C898   1.377       .  D
H902       C1389   1.085       .  S
N903        C907   1.361       .  A
N903        C904   1.380       .  A
C904        C905   1.401       .  A
C905        C906   1.373       .  A
C905        H908   1.080       .  S
C906        C907   1.368       .  A
C906        H909   1.083       .  S
C907        C927   1.477       .  S
N910        C914   1.349       .  A
N910        C911   1.383       .  A
N910        C971   1.478       .  S
C911        C932   1.536       .  S
C911        C912   1.398       .  A
C912        C913   1.380       .  A
C912        H915   1.082       .  S
C913        C914   1.372       .  A
C913        H916   1.082       .  S
C914        C951   1.470       .  S
O917       Cu925   2.018       .  S
O918       Cu925   1.999       .  S
O918        C928   1.273       .  A
O919       Cu925   2.049       .  S
O919        C929   1.284       .  A
O920        C930   1.279       .  A
O921        C930   1.275       .  A
O922       Cu926   2.040       .  S
O922        C929   1.279       .  A
O923       Cu926   1.999       .  S
O923        C928   1.275       .  A
O924       Cu926   2.023       .  S
Cu925      Cu926   2.371       .  S
C928        N952   1.441   1_556  S
C930        C960   1.468   1_556  S
N931        C935   1.372       .  A
N931        C932   1.392       .  A
N931        C966   1.517       .  S
C932        C933   1.394       .  A
C933        C934   1.374       .  A
C933        H936   1.083       .  S
C934        C935   1.373       .  A
C934        H937   1.082       .  S
C935        C949   1.496       .  S
O938       C1440   1.275       .  A
O939       Cu946   2.039       .  S
O939       C1441   1.284       .  A
O940       Cu946   2.003       .  S
O940       C1442   1.274       .  A
O941       C1443   1.275       .  A
O942        C951   1.281       .  A
O943       Cu947   1.980       .  S
O943        C950   1.275       .  A
O944       Cu947   1.993       .  S
O944        C949   1.270       .  A
O945        C948   1.273       .  A
Cu946     Cu1439   2.372       .  S
C948        C953   1.449       .  S
C950        N959   1.427       .  S
N952        C956   1.358       .  A
N952        C953   1.359       .  A
C953        C954   1.385       .  A
C954        C955   1.370       .  A
C954        H957   1.085       .  S
C955        C956   1.376       .  A
C955        H958   1.077       .  S
C956        C963   1.482       .  S
N959        C963   1.340       .  A
N959        C960   1.348       .  A
C960        C961   1.384   1_554  A
C961        C962   1.384   1_556  A
C961        H964   1.082       .  S
C962        C963   1.381       .  A
C962        H965   1.081       .  S
C966        C967   1.554       .  S
C966        C970   1.540       .  S
C967        H974   1.085       .  S
C967        C968   1.374       .  D
C969        C971   1.538   1_545  S
C969        H975   1.109   1_545  S
C970        H976   1.069       .  S
C972       C1458   1.535       .  S
C972        H977   1.083       .  S
C972        C973   1.375       .  D
C973       C1297   1.588       .  S
N978        C982   1.354       .  A
N978        C979   1.359       .  A
C979        C980   1.384       .  A
C980        C981   1.369       .  A
C980        H983   1.085       .  S
C981        C982   1.373       .  A
C981        H984   1.068       .  S
N985       C1317   1.364       .  A
N985        C986   1.393       .  A
N985       C1137   1.483       .  S
C986        C993   1.524       .  S
C986       C1315   1.391       .  A
C987       C1150   1.393       .  A
C987        C988   1.374       .  A
C987        H990   1.082       .  S
C988        C989   1.373       .  A
C988        H991   1.082       .  S
C989       N1149   1.350       .  A
C989       C1010   1.462       .  S
N992       C1324   1.347       .  A
N992        C993   1.383   1_565  A
N992       C1132   1.480   1_565  S
C993       C1322   1.393   1_545  A
C994       C1157   1.394       .  A
C994        C995   1.378       .  A
C994        H997   1.082       .  S
C995        C996   1.375       .  A
C995        H998   1.083       .  S
C996       N1156   1.345       .  A
C996       C1012   1.463       .  S
O999      Cu1007   1.986       .  S
O999       C1337   1.276   1_545  A
O1000      C1338   1.270       .  A
O1001      C1339   1.277       .  A
O1002     Cu1007   2.007       .  S
O1002      C1340   1.281   1_545  A
O1003     Cu1008   1.997       .  S
O1003      C1012   1.272       .  A
O1004      C1011   1.273       .  A
O1005      C1010   1.279       .  A
O1006     Cu1008   2.028       .  S
O1006      C1009   1.279       .  A
Cu1007    Cu1336   2.376   1_545  S
Cu1008    Cu1171   2.375       .  S
C1009      C1143   1.463       .  S
C1009      O1163   1.273       .  A
C1010      O1164   1.274       .  A
C1011      O1165   1.278       .  A
C1011      N1041   1.444       .  S
C1012      O1166   1.281       .  A
N1013      C1017   1.343       .  A
N1013      C1014   1.383       .  A
C1014      C1035   1.529       .  S
C1014      C1015   1.394       .  A
C1015      C1016   1.381       .  A
C1015      H1018   1.083       .  S
C1016      C1017   1.377       .  A
C1016      H1019   1.082       .  S
O1020     Cu1028   2.010       .  S
O1021     Cu1028   2.044   1_565  S
O1021      C1359   1.283       .  A
O1022     Cu1028   1.991       .  S
O1022      C1360   1.273   1_545  A
O1023     Cu1028   1.992       .  S
O1023      C1361   1.272       .  A
O1024     Cu1029   2.000       .  S
O1024      C1033   1.282       .  A
O1025     Cu1029   1.985       .  S
O1025      C1032   1.274       .  A
O1026     Cu1029   1.961       .  S
O1026      C1031   1.267       .  A
O1027     Cu1029   1.901       .  S
Cu1028    Cu1357   2.378   1_545  S
Cu1029    Cu1192   2.381       .  S
C1030      C1042   1.456       .  S
C1031      C1038   1.467       .  S
C1031      O1185   1.287       .  A
C1032      O1186   1.282       .  A
C1032      N1142   1.432       .  S
C1033      O1187   1.270       .  A
N1034      C1038   1.358       .  A
N1034      C1035   1.390       .  A
N1034      C1057   1.475       .  S
C1035      C1036   1.394       .  A
C1036      C1037   1.370       .  A
C1036      H1039   1.082       .  S
C1037      C1038   1.371       .  A
C1037      H1040   1.082       .  S
N1041      C1045   1.362       .  A
N1041      C1042   1.363       .  A
C1042      C1043   1.385       .  A
C1043      C1044   1.372       .  A
C1043      H1046   1.085       .  S
C1044      C1045   1.371       .  A
C1044      H1047   1.077       .  S
C1045      C1146   1.481       .  S
N1048      C1052   1.372       .  A
N1048      C1049   1.379       .  A
N1048      C1055   1.504       .  S
C1049      C1068   1.522       .  S
C1049      C1050   1.395       .  A
C1050      C1051   1.377       .  A
C1050      H1053   1.082       .  S
C1051      C1052   1.374       .  A
C1051      H1054   1.082       .  S
C1052      C1093   1.498       .  S
C1055      C1056   1.542       .  S
C1055      C1061   1.531       .  S
C1055      C1059   1.525       .  S
C1056      H1063   1.083       .  S
C1056      C1057   1.379       .  D
C1057      C1058   1.580       .  S
C1058      C1062   1.594       .  S
C1058      C1060   1.546       .  S
C1058      H1228   1.109       .  S
C1059      H1065   1.055       .  S
C1059      C1060   1.376       .  D
C1060      N1231   1.479       .  S
C1061      C1062   1.360       .  D
H1064      C1386   1.108       .  S
N1067      C1071   1.352       .  A
N1067      C1068   1.375       .  A
N1067      C1388   1.476   1_545  S
C1068      C1069   1.400       .  A
C1069      C1070   1.375       .  A
C1069      H1072   1.080       .  S
C1070      C1071   1.369       .  A
C1070      H1073   1.083       .  S
C1071      C1091   1.464       .  S
N1074      C1078   1.355       .  A
N1074      C1075   1.385       .  A
N1074      C1135   1.485       .  S
C1075      C1096   1.535       .  S
C1075      C1076   1.398       .  A
C1076      C1077   1.379       .  A
C1076      H1079   1.082       .  S
C1077      C1078   1.372       .  A
C1077      H1080   1.082       .  S
C1078      C1115   1.472       .  S
O1081     Cu1089   2.032       .  S
O1081      C1255   1.280       .  A
O1082     Cu1089   2.027       .  S
O1082      C1092   1.278       .  A
O1083     Cu1089   2.028       .  S
O1083      C1093   1.279       .  A
O1084     Cu1417   1.989       .  S
O1084      C1094   1.272   1_565  A
O1085     Cu1418   1.974   1_545  S
O1085      C1094   1.277       .  A
O1086     Cu1090   2.064       .  S
O1086      C1093   1.284       .  A
O1087     Cu1090   2.000       .  S
O1087      C1092   1.275       .  A
O1088     Cu1090   2.000       .  S
O1088      C1255   1.278       .  A
Cu1089     O1248   1.985       .  S
Cu1089    Cu1090   2.370       .  S
Cu1090     O1249   2.007       .  S
C1091      O1409   1.273   1_545  A
C1091      O1416   1.281       .  A
C1092      N1116   1.449   1_556  S
C1094      C1124   1.448   1_556  S
N1095      C1099   1.368       .  A
N1095      C1096   1.392       .  A
N1095      C1130   1.508       .  S
C1096      C1097   1.394       .  A
C1097      C1098   1.375       .  A
C1097      H1100   1.083       .  S
C1098      C1099   1.372       .  A
C1098      H1101   1.082       .  S
C1099      C1113   1.494       .  S
O1102     Cu1274   1.986       .  S
O1103     Cu1110   2.055       .  S
O1104     Cu1110   2.010       .  S
O1105     Cu1274   2.026       .  S
O1106     Cu1275   1.985       .  S
O1106      C1115   1.276       .  A
O1107     Cu1111   1.984   1_545  S
O1107      C1114   1.274       .  A
O1108     Cu1111   2.021   1_545  S
O1108      C1113   1.275       .  A
O1109     Cu1275   1.964       .  S
O1109      C1112   1.280       .  A
Cu1110     O1430   2.014   1_545  S
Cu1110     O1433   2.031       .  S
Cu1111     O1434   1.995       .  S
Cu1111     O1437   1.984       .  S
C1112      C1117   1.455       .  S
C1114      N1123   1.431       .  S
N1116      C1120   1.354       .  A
N1116      C1117   1.357       .  A
C1117      C1118   1.383       .  A
C1118      C1119   1.367       .  A
C1118      H1121   1.085       .  S
C1119      C1120   1.377       .  A
C1119      H1122   1.071       .  S
C1120      C1127   1.472       .  S
N1123      C1127   1.338       .  A
N1123      C1124   1.342       .  A
C1124      C1125   1.379       .  A
C1125      C1126   1.379       .  A
C1125      H1128   1.083   1_554  S
C1126      C1127   1.383       .  A
C1126      H1129   1.082       .  S
C1130      C1131   1.548       .  S
C1130      C1134   1.543       .  S
C1131      H1138   1.085       .  S
C1131      C1132   1.368       .  D
C1132      C1461   1.583   1_545  S
C1133      C1296   1.595       .  S
C1133      C1135   1.542       .  S
C1133      H1139   1.108       .  S
C1134      H1140   1.069       .  S
C1134      C1463   1.377   1_545  D
C1135      C1298   1.382       .  D
C1136      H1141   1.083       .  S
C1136      C1137   1.375       .  D
N1142      C1146   1.343       .  A
N1142      C1143   1.348       .  A
C1143      C1144   1.383       .  A
C1144      C1145   1.383       .  A
C1144      H1147   1.074       .  S
C1145      C1146   1.381       .  A
C1145      H1148   1.081       .  S
N1149      C1150   1.384       .  A
N1149      C1301   1.469       .  S
C1150      C1157   1.526       .  S
C1151      C1314   1.393       .  A
C1151      C1152   1.377       .  A
C1151      H1154   1.083       .  S
C1152      C1153   1.374       .  A
C1152      H1155   1.082       .  S
C1153      N1313   1.346       .  A
C1153      C1174   1.461       .  S
N1156      C1157   1.384       .  A
N1156      C1296   1.473       .  S
C1158      C1321   1.396       .  A
C1158      C1159   1.378       .  A
C1158      H1161   1.083       .  S
C1159      C1160   1.373       .  A
C1159      H1162   1.082       .  S
C1160      N1320   1.339       .  A
C1160      C1176   1.455       .  S
O1163     Cu1171   1.972       .  S
O1166     Cu1171   2.014       .  S
O1167     Cu1172   1.973       .  S
O1167      C1176   1.268       .  A
O1168      C1175   1.278       .  A
O1169      C1174   1.279       .  A
O1170     Cu1172   2.017       .  S
O1170      C1173   1.277       .  A
Cu1172    Cu1335   2.378       .  S
C1173      C1307   1.458       .  S
C1173      O1327   1.273       .  A
C1174      O1328   1.273       .  A
C1175      O1329   1.273   1_655  A
C1175      N1205   1.435       .  S
C1176      O1330   1.282       .  A
N1177      C1181   1.352       .  A
N1177      C1178   1.380       .  A
C1178      C1199   1.523       .  S
C1178      C1179   1.393       .  A
C1179      C1180   1.378       .  A
C1179      H1182   1.082       .  S
C1180      C1181   1.377       .  A
C1180      H1183   1.083       .  S
O1184     Cu1192   1.999       .  S
O1185     Cu1192   2.060       .  S
O1186     Cu1192   2.025       .  S
O1187     Cu1192   1.989       .  S
O1188     Cu1193   2.040       .  S
O1188      C1197   1.287       .  A
O1189     Cu1193   2.020       .  S
O1189      C1196   1.279       .  A
O1190     Cu1193   1.948       .  S
O1190      C1195   1.265       .  A
O1191     Cu1193   1.912       .  S
Cu1193    Cu1356   2.374       .  S
C1194      C1206   1.455       .  S
C1195      C1202   1.461       .  S
C1195      O1349   1.287       .  A
C1196      O1350   1.273       .  A
C1196      N1306   1.447       .  S
C1197      O1351   1.266       .  A
N1198      C1202   1.356       .  A
N1198      C1199   1.385       .  A
N1198      C1221   1.479       .  S
C1199      C1200   1.395       .  A
C1200      C1201   1.364       .  A
C1200      H1203   1.078       .  S
C1201      C1202   1.368       .  A
C1201      H1204   1.082       .  S
N1205      C1209   1.341       .  A
N1205      C1206   1.345       .  A
C1206      C1207   1.383       .  A
C1207      C1208   1.381       .  A
C1207      H1210   1.083       .  S
C1208      C1209   1.383       .  A
C1208      H1211   1.082       .  S
C1209      C1310   1.475       .  S
N1212      C1216   1.372       .  A
N1212      C1213   1.386       .  A
N1212      C1219   1.516       .  S
C1213      C1232   1.528       .  S
C1213      C1214   1.396       .  A
C1214      C1215   1.375       .  A
C1214      H1217   1.083       .  S
C1215      C1216   1.372       .  A
C1215      H1218   1.083       .  S
C1216      C1257   1.495       .  S
C1219      C1220   1.544       .  S
C1219      C1225   1.537       .  S
C1219      C1223   1.535       .  S
C1220      H1227   1.083       .  S
C1220      C1221   1.382       .  D
C1221      C1222   1.576       .  S
C1222      C1226   1.593       .  S
C1222      C1224   1.542       .  S
C1222      H1392   1.109       .  S
C1223      H1229   1.044       .  S
C1223      C1224   1.375       .  D
C1224      N1395   1.480       .  S
C1225      C1226   1.363       .  D
N1231      C1235   1.356       .  A
N1231      C1232   1.379       .  A
C1232      C1233   1.398       .  A
C1233      C1234   1.378       .  A
C1233      H1236   1.081       .  S
C1234      C1235   1.370       .  A
C1234      H1237   1.082       .  S
C1235      C1255   1.474       .  S
N1238      C1242   1.352       .  A
N1238      C1239   1.385       .  A
N1238      C1299   1.487       .  S
C1239      C1260   1.537       .  S
C1239      C1240   1.398       .  A
C1240      C1241   1.378       .  A
C1240      H1243   1.082       .  S
C1241      C1242   1.370       .  A
C1241      H1244   1.082       .  S
C1242      C1279   1.471       .  S
O1245     Cu1253   2.026       .  S
O1245      C1419   1.278       .  A
O1246     Cu1253   2.005       .  S
O1246      C1256   1.276   1_556  A
O1247     Cu1253   2.059       .  S
O1247      C1257   1.286       .  A
O1248      C1258   1.271       .  A
O1249      C1258   1.280       .  A
O1250     Cu1254   2.023       .  S
O1250      C1257   1.277       .  A
O1251     Cu1254   1.989       .  S
O1251      C1256   1.274   1_556  A
O1252     Cu1254   2.028       .  S
O1252      C1419   1.281       .  A
Cu1253     O1412   2.014       .  S
Cu1253    Cu1254   2.371       .  S
Cu1254     O1413   1.966       .  S
C1256      N1280   1.440       .  S
C1258      C1288   1.454   1_556  S
N1259      C1263   1.373       .  A
N1259      C1260   1.391       .  A
N1259      C1294   1.514       .  S
C1260      C1261   1.396       .  A
C1261      C1262   1.376       .  A
C1261      H1264   1.083       .  S
C1262      C1263   1.373       .  A
C1262      H1265   1.082       .  S
C1263      C1277   1.498       .  S
O1266     Cu1438   1.984       .  S
O1267     Cu1274   2.030       .  S
O1268     Cu1274   2.024       .  S
O1269     Cu1438   2.004       .  S
O1270     Cu1439   2.025       .  S
O1270      C1279   1.282       .  A
O1271     Cu1275   1.956       .  S
O1271      C1278   1.270       .  A
O1272     Cu1275   2.038       .  S
O1272      C1277   1.279       .  A
O1273     Cu1439   1.938       .  S
O1273      C1276   1.274       .  A
C1276      C1281   1.446       .  S
C1278      N1287   1.427       .  S
N1280      C1284   1.351       .  A
N1280      C1281   1.354       .  A
C1281      C1282   1.387       .  A
C1282      C1283   1.368       .  A
C1282      H1285   1.084       .  S
C1283      C1284   1.375       .  A
C1283      H1286   1.079       .  S
C1284      C1291   1.458       .  S
N1287      C1291   1.336       .  A
N1287      C1288   1.344       .  A
C1288      C1289   1.381   1_554  A
C1289      C1290   1.376   1_556  A
C1289      H1292   1.083       .  S
C1290      C1291   1.379       .  A
C1290      H1293   1.076       .  S
C1294      C1295   1.532       .  S
C1294      C1298   1.537       .  S
C1295      H1302   1.085       .  S
C1295      C1296   1.359       .  D
C1297      C1460   1.601       .  S
C1297      C1299   1.542       .  S
C1297      H1303   1.108       .  S
C1298      H1304   1.059       .  S
C1299      C1462   1.383       .  D
C1300      H1305   1.083       .  S
C1300      C1301   1.378       .  D
N1306      C1310   1.359       .  A
N1306      C1307   1.362       .  A
C1307      C1308   1.387       .  A
C1308      C1309   1.370       .  A
C1308      H1311   1.085       .  S
C1309      C1310   1.372       .  A
C1309      H1312   1.074       .  S
N1313      C1314   1.383       .  A
N1313      C1465   1.458       .  S
C1314      C1321   1.525       .  S
C1315      C1316   1.361       .  A
C1315      H1318   1.081       .  S
C1316      C1317   1.367       .  A
C1316      H1319   1.074       .  S
C1317      C1338   1.468       .  S
N1320      C1321   1.383       .  A
N1320      C1460   1.472       .  S
C1322      C1323   1.378       .  A
C1322      H1325   1.082       .  S
C1323      C1324   1.376       .  A
C1323      H1326   1.083       .  S
C1324      C1340   1.465       .  S
O1327     Cu1335   1.941       .  S
O1330     Cu1335   2.014       .  S
O1331     Cu1336   1.999       .  S
O1331      C1340   1.272       .  A
O1332      C1339   1.269       .  A
O1333      C1338   1.284       .  A
O1334     Cu1336   2.013       .  S
O1334      C1337   1.276       .  A
C1337      C1471   1.462       .  S
C1339      N1369   1.443       .  S
N1341      C1345   1.346   1_565  A
N1341      C1342   1.383       .  A
C1342      C1363   1.525       .  S
C1342      C1343   1.396   1_565  A
C1343      C1344   1.377       .  A
C1343      H1346   1.083       .  S
C1344      C1345   1.374       .  A
C1344      H1347   1.083       .  S
O1348     Cu1356   2.040       .  S
O1349     Cu1356   2.051       .  S
O1350     Cu1356   2.001       .  S
O1351     Cu1356   1.962       .  S
O1352     Cu1357   1.996       .  S
O1352      C1361   1.280   1_565  A
O1353     Cu1357   1.987       .  S
O1353      C1360   1.275       .  A
O1354     Cu1357   1.990       .  S
O1354      C1359   1.271       .  A
O1355     Cu1357   1.976       .  S
C1358      C1370   1.468       .  S
C1359      C1366   1.468       .  S
C1360      N1470   1.427       .  S
N1362      C1366   1.350       .  A
N1362      C1363   1.385       .  A
N1362      C1385   1.468       .  S
C1363      C1364   1.394       .  A
C1364      C1365   1.374       .  A
C1364      H1367   1.083       .  S
C1365      C1366   1.374       .  A
C1365      H1368   1.082       .  S
N1369      C1373   1.356       .  A
N1369      C1370   1.362       .  A
C1370      C1371   1.385       .  A
C1371      C1372   1.373       .  A
C1371      H1374   1.085       .  S
C1372      C1373   1.378       .  A
C1372      H1375   1.074       .  S
C1373      C1474   1.491   1_545  S
N1376      C1380   1.366       .  A
N1376      C1377   1.384       .  A
N1376      C1383   1.511       .  S
C1377      C1396   1.526       .  S
C1377      C1378   1.395       .  A
C1378      C1379   1.376       .  A
C1378      H1381   1.083       .  S
C1379      C1380   1.373       .  A
C1379      H1382   1.082       .  S
C1380      C1421   1.489       .  S
C1383      C1384   1.537       .  S
C1383      C1389   1.543       .  S
C1383      C1387   1.535       .  S
C1384      H1391   1.085       .  S
C1384      C1385   1.381       .  D
C1385      C1386   1.578       .  S
C1386      C1390   1.586       .  S
C1386      C1388   1.540       .  S
C1387      H1393   1.062       .  S
C1387      C1388   1.376       .  D
C1389      C1390   1.366       .  D
N1395      C1399   1.361       .  A
N1395      C1396   1.381       .  A
C1396      C1397   1.397       .  A
C1397      C1398   1.377       .  A
C1397      H1400   1.082       .  S
C1398      C1399   1.372       .  A
C1398      H1401   1.082       .  S
C1399      C1419   1.480       .  S
N1402      C1406   1.354       .  A
N1402      C1403   1.371       .  A
N1402      C1463   1.470       .  S
C1403      C1424   1.516       .  S
C1403      C1404   1.398       .  A
C1404      C1405   1.375       .  A
C1404      H1407   1.081       .  S
C1405      C1406   1.372       .  A
C1405      H1408   1.083       .  S
C1406      C1443   1.465       .  S
O1409     Cu1417   1.993       .  S
O1410     Cu1417   1.981       .  S
O1410      C1420   1.271       .  A
O1411     Cu1417   2.058       .  S
O1411      C1421   1.285       .  A
O1412      C1422   1.275       .  A
O1413      C1422   1.278       .  A
O1414     Cu1418   2.020       .  S
O1414      C1421   1.275       .  A
O1415     Cu1418   1.997       .  S
O1415      C1420   1.275       .  A
O1416     Cu1418   2.009   1_545  S
Cu1417    Cu1418   2.377       .  S
C1420      N1444   1.428   1_556  S
C1422      C1452   1.468   1_556  S
N1423      C1427   1.367       .  A
N1423      C1424   1.374       .  A
N1423      C1458   1.505       .  S
C1424      C1425   1.396       .  A
C1425      C1426   1.373       .  A
C1425      H1428   1.079       .  S
C1426      C1427   1.371       .  A
C1426      H1429   1.083       .  S
C1427      C1441   1.483       .  S
O1431     Cu1438   2.060       .  S
O1432     Cu1438   1.986       .  S
O1434      C1443   1.278       .  A
O1435     Cu1439   2.001       .  S
O1435      C1442   1.276       .  A
O1436     Cu1439   2.016       .  S
O1436      C1441   1.275       .  A
O1437      C1440   1.277       .  A
C1440      C1445   1.458       .  S
C1442      N1451   1.448       .  S
N1444      C1448   1.339       .  A
N1444      C1445   1.345       .  A
C1445      C1446   1.380       .  A
C1446      C1447   1.381       .  A
C1446      H1449   1.083       .  S
C1447      C1448   1.382       .  A
C1447      H1450   1.082       .  S
C1448      C1455   1.486       .  S
N1451      C1455   1.359       .  A
N1451      C1452   1.359       .  A
C1452      C1453   1.384   1_554  A
C1453      C1454   1.372       .  A
C1453      H1456   1.085       .  S
C1454      C1455   1.382   1_556  A
C1454      H1457   1.079       .  S
C1458      C1459   1.533       .  S
C1458      C1462   1.528       .  S
C1459      H1466   1.086       .  S
C1459      C1460   1.362       .  D
C1461      C1463   1.535       .  S
C1461      H1467   1.109       .  S
C1462      H1468   1.053       .  S
C1464      H1469   1.084       .  S
C1464      C1465   1.374       .  D
N1470      C1474   1.340       .  A
N1470      C1471   1.349       .  A
C1471      C1472   1.380       .  A
C1472      C1473   1.382       .  A
C1472      H1475   1.082       .  S
C1473      C1474   1.387       .  A
C1473      H1476   1.082       .  S
