geometry optimzed in LAMMPS
_audit_creation_date              2020-11-30 
_audit_creation_method            'lammps2cif' 
_symmetry_space_group_name_H-M    'P1' 
_symmetry_Int_Tables_number       1 
_symmetry_cell_setting            triclinic 
loop_ 
_symmetry_equiv_pos_as_xyz 
  x,y,z 
_cell_length_a                    19.42749912 
_cell_length_b                    57.02878453313717 
_cell_length_c                    43.07602405494421 
_cell_angle_alpha                 90.06536219102667 
_cell_angle_beta                  90.02366257511096 
_cell_angle_gamma                 90.39665909190032 
loop_ 
_atom_site_label 
_atom_site_type_symbol 
_atom_site_fract_x 
_atom_site_fract_y 
_atom_site_fract_z 
_atom_site_charge 
C1          C  0.20919632  0.30133817  0.25353027     0.03000
C2          C  0.14820358  0.28908853  0.26110652    -0.13200
C3          C  0.08498127  0.30122893  0.26313249     0.00500
C4          C  0.08384512  0.32551341  0.25866187    -0.11700
C5          C  0.14475581  0.33779839  0.25196898     0.03000
C6          C  0.20657788  0.32559826  0.24915474    -0.11100
H7          H  0.14979572  0.27038823  0.26527690     0.08600
H8          H  0.03598119  0.33497007  0.26162759     0.06100
H9          H  0.25360396  0.33517202  0.24401439     0.05900
C10         C  0.36638265  0.77342289  0.22424606     0.03000
C11         C  0.31220486  0.78921878  0.22912986    -0.13200
C12         C  0.24335101  0.78133690  0.22879599     0.00500
C13         C  0.22901567  0.75752246  0.22395229    -0.11700
C14         C  0.28264459  0.74147062  0.21965193     0.03000
C15         C  0.35092275  0.74966770  0.21890155    -0.11100
H16         H  0.32357402  0.80764120  0.23298240     0.08600
H17         H  0.17644829  0.75132385  0.22484420     0.06100
H18         H  0.39234582  0.73736635  0.21506312     0.05900
C19         C  0.87407872  0.77777146  0.22389375     0.03000
C20         C  0.93113663  0.79209679  0.23070817    -0.13200
C21         C  0.99869817  0.78385815  0.22579038     0.00500
C22         C  0.00802966  0.76121818  0.21347616    -0.11700
C23         C  0.95091621  0.74700852  0.20626169     0.03000
C24         C  0.88448626  0.75542909  0.21143525    -0.11100
H25         H  0.92274933  0.80951799  0.23995405     0.08600
H26         H  0.05915379  0.75445264  0.21001179     0.06100
H27         H  0.84041149  0.74422865  0.20646765     0.05900
O28         O  0.94941390  0.56867622  0.21381140    -0.74600
O29         O  0.06932928  0.52092115  0.24388646    -0.74600
O30         O  0.07768109  0.56837561  0.23478691    -0.74700
O31         O  0.94083788  0.52095377  0.22314654    -0.74700
O32         O  0.97924384  0.51428769  0.17517512    -0.74600
O33         O  0.11538738  0.56274569  0.18670642    -0.74600
O34         O  0.10830189  0.51531221  0.19598640    -0.74600
O35         O  0.98661656  0.56235284  0.16576482    -0.74700
Ni36       Ni  0.00774816  0.54493890  0.23055177     1.25400
Ni37       Ni  0.04848371  0.53845595  0.17913208     1.25400
C38         C  0.95412384  0.57501102  0.18534266     0.87600
C39         C  0.10574674  0.50927325  0.22460867     0.87500
C40         C  0.11660318  0.57440292  0.21219750     0.87600
C41         C  0.94222454  0.50834680  0.19854694     0.87700
C42         C  0.71261054  0.31171216  0.25034892     0.03000
C43         C  0.72685691  0.33352350  0.23669020    -0.13400
C44         C  0.79484177  0.34157550  0.23336437     0.00500
C45         C  0.84967728  0.32733909  0.24300786    -0.11700
C46         C  0.83654816  0.30555058  0.25698699     0.03000
C47         C  0.76770585  0.29781434  0.26045738    -0.11100
H48         H  0.68478073  0.34452755  0.22916280     0.08600
H49         H  0.90216974  0.33376306  0.24112241     0.06100
H50         H  0.75689598  0.28105259  0.27128938     0.05900
C51         C  0.94877217  0.26423523  0.30563672     0.86300
C52         C  0.88980523  0.28098241  0.29803950    -0.53900
C53         C  0.89400448  0.29125315  0.26955784     0.09300
C54         C  0.95903207  0.28423998  0.25114244     0.20200
C55         C  0.95162516  0.24688410  0.27830375    -0.54600
C56         C  0.95576056  0.25729613  0.24988156     0.09400
C57         C  0.01523378  0.27886425  0.30119284    -0.54200
C58         C  0.02092397  0.28908366  0.27276817     0.09900
H59         H  0.84683270  0.28389542  0.31369604     0.14400
H60         H  0.96353368  0.29257016  0.22792967     0.00200
H61         H  0.95142593  0.22795020  0.28116125     0.14800
H62         H  0.05753513  0.27996236  0.31757770     0.14500
C63         C  0.12533858  0.82964036  0.26015743     0.86300
C64         C  0.18658339  0.81283141  0.25927458    -0.53900
C65         C  0.18623864  0.79778872  0.23467913     0.09300
C66         C  0.12392513  0.80072268  0.21287298     0.20200
C67         C  0.12704215  0.84182046  0.22816254    -0.54600
C68         C  0.12634840  0.82666041  0.20365607     0.09400
C69         C  0.06028470  0.81407588  0.25803295    -0.54200
C70         C  0.05938830  0.79884636  0.23350777     0.09900
H71         H  0.22746928  0.81307783  0.27648268     0.14400
H72         H  0.12375890  0.78870699  0.19255688     0.00200
H73         H  0.12370081  0.86052983  0.22425329     0.14800
H74         H  0.01786395  0.81543414  0.27430658     0.14500
C75         C  0.95871832  0.16453898  0.49665135     0.80100
N76         N  0.97351328  0.18005146  0.02423375    -0.78200
C77         C  0.98531747  0.16734242  0.05029374     0.82500
N78         N  0.98954836  0.14358932  0.04830940    -0.78200
C79         C  0.98317170  0.13267703  0.02037061     0.82600
N80         N  0.96121909  0.14086772  0.49426600    -0.79900
C81         C  0.06537617  0.92274101  0.45672024     0.80100
N82         N  0.04364504  0.94525627  0.45891613    -0.78200
C83         C  0.02839426  0.95827284  0.99004191     0.82500
N84         N  0.02931996  0.94354469  0.01484671    -0.78200
C85         C  0.04694552  0.92065521  0.01145691     0.82600
N86         N  0.06665156  0.91285541  0.98314087    -0.79900
C87         C  0.97106532  0.01688538  0.02400230    -0.11500
C88         C  0.00428614  0.03259337  0.00393493     0.15000
C89         C  0.03351462  0.01957098  0.47543516     0.01900
C90         C  0.04203706  0.99542394  0.47156870    -0.15900
C91         C  0.01434959  0.98368408  0.99430435    -0.10700
C92         C  0.97453567  0.99262747  0.01920773     0.08600
C93         C  0.99629854  0.05799939  0.00928738     0.09700
S94         S  0.08370188  0.03885557  0.45102946    -0.25000
H95         H  0.07952496  0.98932253  0.45486088     0.19900
S96         S  0.92392467  0.97436750  0.04472920    -0.30700
H97         H  0.94080816  0.02362564  0.04310577     0.10200
C98         C  0.92368771  0.06618689  0.49619474     0.03400
C99         C  0.92252147  0.09041498  0.50164150    -0.13000
C100        C  0.98868249  0.10693181  0.01759845    -0.08700
C101        C  0.03918738  0.09385358  0.03355908     0.06900
C102        C  0.04147838  0.06949144  0.02971606    -0.13800
S103        S  0.85226402  0.05205931  0.47670418    -0.30700
H104        H  0.87841420  0.10054722  0.49441637     0.11100
S105        S  0.10528880  0.10725579  0.05715699    -0.27800
H106        H  0.08066008  0.05951879  0.04167240     0.08400
H107        H  0.90290303  0.95875747  0.02117842     0.26800
H108        H  0.81229729  0.07229718  0.47264032     0.21600
H109        H  0.11547157  0.12662139  0.03743242     0.26900
H110        H  0.03480461  0.05688579  0.44965816     0.15700
C111        C  0.11192219  0.85052122  0.34507711    -0.11500
C112        C  0.12056483  0.87476910  0.34216019     0.15000
C113        C  0.13739651  0.88432574  0.31301059     0.01900
C114        C  0.13939297  0.86968276  0.28698597    -0.15900
C115        C  0.12642714  0.84531856  0.28918152    -0.10700
C116        C  0.11636776  0.83563012  0.31929566     0.08600
C117        C  0.11010788  0.88939832  0.37008209     0.09700
S118        S  0.15747158  0.91500470  0.30746098    -0.25000
H119        H  0.15341852  0.87778644  0.26524111     0.19900
S120        S  0.10933754  0.80430882  0.32569600    -0.30700
H121        H  0.10078266  0.84328696  0.36782600     0.10200
C122        C  0.05166022  0.90371201  0.37330385     0.03400
C123        C  0.04085340  0.91569637  0.40128736    -0.13000
C124        C  0.08580221  0.91289972  0.42649141    -0.08700
C125        C  0.14495667  0.89883979  0.42298482     0.06900
C126        C  0.15637768  0.88726924  0.39486233    -0.13800
S127        S  0.98803997  0.90527282  0.34278151    -0.30700
H128        H  0.99520358  0.92627244  0.40415926     0.11100
S129        S  0.20757007  0.89483332  0.45341718    -0.27800
H130        H  0.20113718  0.87617959  0.39239134     0.08400
H131        H  0.10798379  0.80491287  0.35833077     0.26800
H132        H  0.93823503  0.91759496  0.35983804     0.21600
H133        H  0.19904491  0.91712286  0.46684292     0.26900
H134        H  0.18011701  0.91950864  0.33789299     0.15700
C135        C  0.15218434  0.86143733  0.13032209    -0.11500
C136        C  0.08546209  0.86067344  0.11786676     0.15000
C137        C  0.03533557  0.84585804  0.13151874     0.01900
C138        C  0.05231732  0.83301340  0.15806417    -0.15900
C139        C  0.11758930  0.83517355  0.17167966    -0.10700
C140        C  0.16866672  0.84892490  0.15711728     0.08600
C141        C  0.06998474  0.87603450  0.09119393     0.09700
S142        S  0.94795489  0.84364891  0.11754223    -0.25000
H143        H  0.01285865  0.82258616  0.16945167     0.19900
S144        S  0.25479879  0.85182669  0.17233865    -0.30700
H145        H  0.19117340  0.87241836  0.11953378     0.10200
C146        C  0.06947703  0.90061594  0.09450753     0.03400
C147        C  0.05975084  0.91472565  0.06829169    -0.13000
C148        C  0.04913755  0.90479019  0.03876424    -0.08700
C149        C  0.04472131  0.87999864  0.03610164     0.06900
C150        C  0.05687340  0.86598563  0.06212712    -0.13800
S151        S  0.08090753  0.91406195  0.13219680    -0.30700
H152        H  0.06223174  0.93358353  0.07077150     0.11100
S153        S  0.02104868  0.86497804  0.00078107    -0.27800
H154        H  0.05547750  0.84707206  0.05980269     0.08400
H155        H  0.25585760  0.82992805  0.18726823     0.26800
H156        H  0.06828309  0.93726487  0.12284383     0.21600
H157        H  0.97067898  0.88140652  0.99232027     0.26900
H158        H  0.94356409  0.86663806  0.10603573     0.15700
C159        C  0.88128359  0.22247079  0.36900482    -0.11500
C160        C  0.92837874  0.22660470  0.39291423     0.15000
C161        C  0.97652539  0.24499538  0.39023795     0.01900
C162        C  0.98092022  0.25745011  0.36251306    -0.15900
C163        C  0.93808208  0.25212390  0.33698936    -0.10700
C164        C  0.88409869  0.23543576  0.34142178     0.08600
C165        C  0.93115448  0.20994635  0.41887975     0.09700
S166        S  0.03567903  0.25281076  0.42095186    -0.25000
H167        H  0.01821047  0.27162542  0.36164369     0.19900
S168        S  0.81831566  0.23022514  0.31232081    -0.30700
H169        H  0.84318190  0.20861927  0.37182693     0.10200
C170        C  0.89113896  0.21288979  0.44576228     0.03400
C171        C  0.90050983  0.19759790  0.47081982    -0.13000
C172        C  0.94805410  0.17918569  0.46905337    -0.08700
C173        C  0.98633426  0.17588815  0.44152211     0.06900
C174        C  0.97711300  0.19122770  0.41669611    -0.13800
S175        S  0.83047136  0.23663385  0.44847593    -0.30700
H176        H  0.87125949  0.20005955  0.49192100     0.11100
S177        S  0.05082470  0.15352601  0.43721521    -0.27800
H178        H  0.00758352  0.18905247  0.39586325     0.08400
H179        H  0.78171863  0.21263683  0.32830860     0.26800
H180        H  0.80073945  0.22965567  0.47680168     0.21600
H181        H  0.07767047  0.15610127  0.46738191     0.26900
H182        H  0.99288801  0.24618109  0.44572503     0.15700
C183        C  0.02092044  0.21266065  0.11316516    -0.11500
C184        C  0.98603266  0.20261284  0.13834617     0.15000
C185        C  0.95459860  0.18034558  0.13500534     0.01900
C186        C  0.95774117  0.16887398  0.10631943    -0.15900
C187        C  0.99079019  0.17920081  0.08072305    -0.10700
C188        C  0.02413238  0.20118136  0.08451311     0.08600
C189        C  0.97962578  0.21659110  0.16695779     0.09700
S190        S  0.90655521  0.16596613  0.16554107    -0.25000
H191        H  0.93187497  0.15213756  0.10366713     0.19900
S192        S  0.07242889  0.21544201  0.05408554    -0.30700
H193        H  0.04528967  0.22965792  0.11581472     0.10200
C194        C  0.02858381  0.21520478  0.19098057     0.03400
C195        C  0.01964001  0.22873891  0.21783893    -0.13000
C196        C  0.96255911  0.24350263  0.22105771    -0.08700
C197        C  0.91336075  0.24461208  0.19703243     0.06900
C198        C  0.92285496  0.23139158  0.17008781    -0.13800
S199        S  0.10173029  0.19603335  0.18750629    -0.30700
H200        H  0.05732101  0.22796702  0.23637191     0.11100
S201        S  0.83584140  0.26152471  0.20009470    -0.27800
H202        H  0.88487571  0.23221107  0.15165277     0.08400
H203        H  0.09822554  0.19457186  0.04125200     0.26800
H204        H  0.12505592  0.19861722  0.21825074     0.21600
H205        H  0.82393561  0.25540086  0.23125760     0.26900
H206        H  0.92852453  0.17971101  0.19071447     0.15700
C207        C  0.85243384  0.45022050  0.17917819    -0.11500
C208        C  0.86924242  0.43726688  0.20588836     0.15000
C209        C  0.91099677  0.44777717  0.22888580     0.01900
C210        C  0.92906596  0.47135595  0.22629993    -0.15900
C211        C  0.91120797  0.48463635  0.20010078    -0.10700
C212        C  0.87395346  0.47371166  0.17581398     0.08600
C213        C  0.84168451  0.41313612  0.21013705     0.09700
S214        S  0.94552419  0.43183611  0.26152526    -0.25000
H215        H  0.96099289  0.47909212  0.24432156     0.19900
S216        S  0.85158145  0.48874257  0.14049302    -0.30700
H217        H  0.82176182  0.44207756  0.16106885     0.10200
C218        C  0.79797658  0.40766060  0.23533280     0.03400
C219        C  0.78217887  0.38417122  0.24177199    -0.13000
C220        C  0.80769262  0.36599479  0.22316353    -0.08700
C221        C  0.84659774  0.37160182  0.19645739     0.06900
C222        C  0.86397372  0.39508418  0.19044410    -0.13800
S223        S  0.76255831  0.43056753  0.25946750    -0.30700
H224        H  0.75105155  0.37982996  0.26184871     0.11100
S225        S  0.87499067  0.34967447  0.16919474    -0.27800
H226        H  0.89642038  0.39926286  0.17071788     0.08400
H227        H  0.84978845  0.51132852  0.15358504     0.26800
H228        H  0.73068452  0.41578862  0.28136453     0.21600
H229        H  0.82271986  0.33319186  0.17548654     0.26900
H230        H  0.94983509  0.41008076  0.24627128     0.15700
C231        C  0.92395031  0.69000069  0.16285854    -0.11500
C232        C  0.94604643  0.67386059  0.18521562     0.15000
C233        C  0.98002135  0.68214485  0.21221493     0.01900
C234        C  0.98540632  0.70629438  0.21748523    -0.15900
C235        C  0.95902159  0.72242424  0.19611878    -0.10700
C236        C  0.93064718  0.71416435  0.16791502     0.08600
C237        C  0.93294312  0.64856122  0.17997946     0.09700
S238        S  0.01632764  0.66297577  0.24120227    -0.25000
H239        H  0.00776956  0.71253698  0.23902780     0.19900
S240        S  0.90077527  0.73362954  0.13790312    -0.30700
H241        H  0.89999576  0.68373977  0.14168562     0.10200
C242        C  0.88830362  0.63558733  0.19928334     0.03400
C243        C  0.88859207  0.61099974  0.19773449    -0.13000
C244        C  0.93200344  0.59911674  0.17689564    -0.08700
C245        C  0.96853027  0.61255440  0.15441612     0.06900
C246        C  0.96940621  0.63702827  0.15659242    -0.13800
S247        S  0.83381341  0.65031866  0.22699644    -0.30700
H248        H  0.85909265  0.60103230  0.21446207     0.11100
S249        S  0.02079453  0.59994347  0.12426191    -0.27800
H250        H  0.00153020  0.64708571  0.14092474     0.08400
H251        H  0.94437305  0.75250677  0.14580068     0.26800
H252        H  0.79993680  0.63012179  0.23808204     0.21600
H253        H  0.97004164  0.58348730  0.11550030     0.26900
H254        H  0.02749001  0.64359619  0.22172947     0.15700
C255        C  0.68937347  0.77629417  0.25105696    -0.11500
C256        C  0.65886014  0.79210655  0.23038410     0.15000
C257        C  0.70164504  0.80632795  0.21150109     0.01900
C258        C  0.77301894  0.80258843  0.21132755    -0.15900
C259        C  0.80267720  0.78534627  0.23021734    -0.10700
C260        C  0.76057386  0.77295319  0.25140813     0.08600
C261        C  0.58283390  0.79085376  0.22666834     0.09700
S262        S  0.66804507  0.82859985  0.18608618    -0.25000
H263        H  0.80512790  0.81234945  0.19525732     0.19900
S264        S  0.79439461  0.75170708  0.27829935    -0.30700
H265        H  0.65710669  0.76562254  0.26603083     0.10200
C266        C  0.55297387  0.78014412  0.20029912     0.03400
C267        C  0.48180535  0.77581000  0.19960293    -0.13000
C268        C  0.43966761  0.78117576  0.22509943    -0.08700
C269        C  0.46969531  0.79202673  0.25145566     0.06900
C270        C  0.54050334  0.79705237  0.25173267    -0.13800
S271        S  0.60598917  0.77025374  0.16845837    -0.30700
H272        H  0.45897068  0.76744531  0.17946568     0.11100
S273        S  0.42198744  0.79811494  0.28641611    -0.27800
H274        H  0.56350319  0.80469740  0.27234264     0.08400
H275        H  0.86016978  0.76199134  0.28084192     0.26800
H276        H  0.55424139  0.75769776  0.15259331     0.21600
H277        H  0.38089286  0.77773555  0.28506941     0.26900
H278        H  0.60624321  0.83207232  0.20236808     0.15700
C279        C  0.28163204  0.67541348  0.23239709    -0.11500
C280        C  0.23112445  0.66804500  0.21114096     0.15000
C281        C  0.19785348  0.68507354  0.19258004     0.01900
C282        C  0.21733443  0.70866725  0.19519694    -0.15900
C283        C  0.26688770  0.71605078  0.21690458    -0.10700
C284        C  0.29843933  0.69911834  0.23609807     0.08600
C285        C  0.21010393  0.64293627  0.21158806     0.09700
S286        S  0.12845845  0.67845757  0.16601754    -0.25000
H287        H  0.19220265  0.72154472  0.18063908     0.19900
S288        S  0.35649651  0.70658081  0.26735547    -0.30700
H289        H  0.30612112  0.66260660  0.24726629     0.10200
C290        C  0.21477372  0.62826908  0.18534644     0.03400
C291        C  0.18757143  0.60543605  0.18675746    -0.13000
C292        C  0.15785491  0.59651663  0.21420134    -0.08700
C293        C  0.16039473  0.61054910  0.24143917     0.06900
C294        C  0.18521981  0.63361169  0.23952183    -0.13800
S295        S  0.25539927  0.63850700  0.15010524    -0.30700
H296        H  0.18756398  0.59476034  0.16591578     0.11100
S297        S  0.13233329  0.59980137  0.27892223    -0.27800
H298        H  0.18384463  0.64480874  0.25989890     0.08400
H299        H  0.32303469  0.72747194  0.27562845     0.26800
H300        H  0.24573749  0.61786162  0.13270593     0.21600
H301        H  0.15291795  0.61936030  0.29664188     0.26900
H302        H  0.10492837  0.65803029  0.18077206     0.15700
C303        C  0.38941184  0.29051660  0.22548997    -0.11500
C304        C  0.42313458  0.28627629  0.25370864     0.15000
C305        C  0.38311450  0.28155899  0.28044661     0.01900
C306        C  0.31110479  0.28366426  0.27911392    -0.15900
C307        C  0.27797878  0.29018082  0.25148560    -0.10700
C308        C  0.31757843  0.29224846  0.22404719     0.08600
C309        C  0.49870639  0.29082817  0.25538520     0.09700
S310        S  0.42140560  0.27442827  0.31734342    -0.25000
H311        H  0.28141993  0.28205083  0.30029051     0.19900
S312        S  0.27962754  0.29938959  0.18704349    -0.30700
H313        H  0.41947978  0.29397803  0.20480566     0.10200
C314        C  0.54714780  0.27648759  0.24022628     0.03400
C315        C  0.61719973  0.28309599  0.24001639    -0.13000
C316        C  0.63982688  0.30388244  0.25450268    -0.08700
C317        C  0.59135042  0.31764580  0.27078169     0.06900
C318        C  0.52170464  0.31112360  0.27075910    -0.13800
S319        S  0.51955391  0.24988151  0.22105971    -0.30700
H320        H  0.65422154  0.27247514  0.22766818     0.11100
S321        S  0.61493208  0.34372397  0.29215286    -0.27800
H322        H  0.48477438  0.32218115  0.28251207     0.08400
H323        H  0.21355723  0.29064640  0.19404903     0.26800
H324        H  0.58530870  0.24258931  0.21158083     0.21600
H325        H  0.68118183  0.33610099  0.30036123     0.26900
H326        H  0.48235430  0.26499575  0.30511797     0.15700
C327        C  0.10765973  0.40044815  0.22796522    -0.11500
C328        C  0.15640111  0.41275269  0.24583536     0.15000
C329        C  0.19982950  0.40040895  0.26617758     0.01900
C330        C  0.19347068  0.37606352  0.26822307    -0.15900
C331        C  0.14605358  0.36361903  0.24968226    -0.10700
C332        C  0.10307140  0.37603169  0.22912024     0.08600
C333        C  0.15923091  0.43847135  0.24278165     0.09700
S334        S  0.26488945  0.41453692  0.28968228    -0.25000
H335        H  0.22657684  0.36668083  0.28409299     0.19900
S336        S  0.04393585  0.36186703  0.20272686    -0.30700
H337        H  0.07410142  0.40995709  0.21240592     0.10200
C338        C  0.17843590  0.44900610  0.21459705     0.03400
C339        C  0.16766829  0.47299875  0.21047401    -0.13000
C340        C  0.13796523  0.48677798  0.23403803    -0.08700
C341        C  0.12774592  0.47661272  0.26378077     0.06900
C342        C  0.13725524  0.45243266  0.26754102    -0.13800
S343        S  0.21379496  0.43167502  0.18334506    -0.30700
H344        H  0.17809636  0.48060295  0.18794224     0.11100
S345        S  0.10064677  0.49364937  0.29696893    -0.27800
H346        H  0.12462156  0.44411671  0.28941848     0.08400
H347        H  0.08528529  0.34217709  0.19707477     0.26800
H348        H  0.23064847  0.45053986  0.16368792     0.21600
H349        H  0.10777279  0.47588085  0.31934359     0.26900
H350        H  0.27803493  0.43328459  0.26932762     0.15700
C351        C  0.22450929  0.30147621  0.74582263     0.03000
C352        C  0.16352386  0.28915259  0.75332913    -0.13200
C353        C  0.10054748  0.30134197  0.75638335     0.00500
C354        C  0.09976705  0.32575722  0.75294970    -0.11700
C355        C  0.16073446  0.33808911  0.74634255     0.03000
C356        C  0.22217689  0.32583840  0.74256091    -0.11100
H357        H  0.16500558  0.27036911  0.75680027     0.08600
H358        H  0.05221642  0.33525435  0.75665463     0.06100
H359        H  0.26917851  0.33544705  0.73754618     0.05900
C360        C  0.36640657  0.77621811  0.72692669     0.03000
C361        C  0.31202367  0.79184567  0.73229277    -0.13200
C362        C  0.24335287  0.78376416  0.73241798     0.00500
C363        C  0.22954519  0.75986783  0.72767229    -0.11700
C364        C  0.28355829  0.74399562  0.72299977     0.03000
C365        C  0.35142454  0.75245750  0.72160105    -0.11100
H366        H  0.32310675  0.81031307  0.73612343     0.08600
H367        H  0.17714821  0.75347572  0.72887352     0.06100
H368        H  0.39305944  0.74030574  0.71740971     0.05900
C369        C  0.87388095  0.77975716  0.72864371     0.03000
C370        C  0.93103720  0.79421577  0.73458498    -0.13200
C371        C  0.99844409  0.78586252  0.72972019     0.00500
C372        C  0.00746626  0.76300162  0.71804405    -0.11700
C373        C  0.95013071  0.74861862  0.71164814     0.03000
C374        C  0.88388842  0.75712000  0.71712119    -0.11100
H375        H  0.92277451  0.81185418  0.74309940     0.08600
H376        H  0.05866431  0.75620095  0.71442225     0.06100
H377        H  0.83967296  0.74587577  0.71285630     0.05900
O378        O  0.96149650  0.56897847  0.71883915    -0.74600
O379        O  0.08556776  0.52139495  0.74576393    -0.74600
O380        O  0.09103099  0.56909223  0.73832855    -0.74700
O381        O  0.95611090  0.52094685  0.72644896    -0.74700
O382        O  0.99158256  0.51587353  0.67768017    -0.74600
O383        O  0.12698832  0.56450896  0.68979921    -0.74600
O384        O  0.12160778  0.51674153  0.69723025    -0.74600
O385        O  0.99714692  0.56418908  0.67025866    -0.74700
Ni386      Ni  0.02209060  0.54527435  0.73400814     1.25400
Ni387      Ni  0.06038344  0.54015696  0.68195387     1.25400
C388        C  0.96449414  0.57607442  0.69063844     0.87600
C389        C  0.12074994  0.51011952  0.72565702     0.87500
C390        C  0.12866525  0.57576331  0.71560230     0.87600
C391        C  0.95627139  0.50908472  0.70118905     0.87700
C392        C  0.72835475  0.31095088  0.74312470     0.03000
C393        C  0.74242036  0.33285468  0.72965432    -0.13400
C394        C  0.81025031  0.34123978  0.72708552     0.00500
C395        C  0.86514530  0.32716130  0.73705895    -0.11700
C396        C  0.85220426  0.30527847  0.75079978     0.03000
C397        C  0.78348133  0.29729167  0.75379289    -0.11100
H398        H  0.70031277  0.34373419  0.72193623     0.08600
H399        H  0.91745535  0.33381838  0.73574614     0.06100
H400        H  0.77276619  0.28056419  0.76474111     0.05900
C401        C  0.96518783  0.26487532  0.80054616     0.86300
C402        C  0.90617414  0.28157896  0.79263187    -0.53900
C403        C  0.90982576  0.29126376  0.76376183     0.09300
C404        C  0.97440185  0.28384457  0.74532025     0.20200
C405        C  0.96711477  0.24703830  0.77379951    -0.54600
C406        C  0.97069136  0.25691008  0.74505991     0.09400
C407        C  0.03167715  0.27940564  0.79528900    -0.54200
C408        C  0.03683218  0.28909446  0.76649371     0.09900
H409        H  0.86345905  0.28482483  0.80830935     0.14400
H410        H  0.97832334  0.29168247  0.72178787     0.00200
H411        H  0.96638826  0.22816148  0.77725041     0.14800
H412        H  0.07417625  0.28098609  0.81147463     0.14500
C413        C  0.12452033  0.83228005  0.76297839     0.86300
C414        C  0.18601098  0.81551104  0.76251613    -0.53900
C415        C  0.18588884  0.80013893  0.73822504     0.09300
C416        C  0.12358341  0.80273017  0.71633580     0.20200
C417        C  0.12628225  0.84402884  0.73068500    -0.54600
C418        C  0.12581887  0.82855605  0.70651814     0.09400
C419        C  0.05973429  0.81659234  0.76113258    -0.54200
C420        C  0.05907104  0.80102449  0.73698494     0.09900
H421        H  0.22689239  0.81605529  0.77971479     0.14400
H422        H  0.12352487  0.79045136  0.69629719     0.00200
H423        H  0.12271677  0.86265541  0.72630332     0.14800
H424        H  0.01723748  0.81810897  0.77735051     0.14500
C425        C  0.96730981  0.16930032  0.99627334     0.80100
N426        N  0.96865194  0.17488354  0.52460630    -0.78200
C427        C  0.98244654  0.16180427  0.55008887     0.82500
N428        N  0.98506156  0.13804038  0.54762533    -0.78200
C429        C  0.97469835  0.12755940  0.51960665     0.82600
N430        N  0.97144517  0.14562416  0.99453422    -0.79900
C431        C  0.06639234  0.92728474  0.95820361     0.80100
N432        N  0.04671011  0.94993127  0.96161425    -0.78200
C433        C  0.02197699  0.95398829  0.48659351     0.82500
N434        N  0.02199427  0.93989292  0.51201539    -0.78200
C435        C  0.04211880  0.91716011  0.50991533     0.82600
N436        N  0.06461055  0.90885197  0.48224033    -0.79900
C437        C  0.94828724  0.01183565  0.51540654    -0.11500
C438        C  0.98753567  0.02791299  0.49818524     0.15000
C439        C  0.04162985  0.02386926  0.97839494     0.01900
C440        C  0.04600272  0.99965538  0.97382271    -0.15900
C441        C  0.00460638  0.97918176  0.48949889    -0.10700
C442        C  0.95531238  0.98763830  0.51093136     0.08600
C443        C  0.98178266  0.05321885  0.50522699     0.09700
S444        S  0.08449374  0.04261020  0.95060154    -0.25000
H445        H  0.07634214  0.99330082  0.95453304     0.19900
S446        S  0.89842477  0.96868041  0.53261776    -0.30700
H447        H  0.91195075  0.01821091  0.53245136     0.10200
C448        C  0.94628260  0.07091961  0.99318770     0.03400
C449        C  0.94283051  0.09522652  0.99755125    -0.13000
C450        C  0.97795903  0.10190322  0.51616601    -0.08700
C451        C  0.03585147  0.08881661  0.52549285     0.06900
C452        C  0.03685029  0.06460413  0.52016802    -0.13800
S453        S  0.88719427  0.05640636  0.96695963    -0.30700
H454        H  0.90423596  0.10520325  0.98526476     0.11100
S455        S  0.11140965  0.10205113  0.54264584    -0.27800
H456        H  0.08168037  0.05463336  0.52691340     0.08400
H457        H  0.89039883  0.95210735  0.50863732     0.26800
H458        H  0.85053996  0.07652263  0.95817199     0.21600
H459        H  0.10896255  0.12284832  0.52516994     0.26900
H460        H  0.09777243  0.06148522  0.97072841     0.15700
C461        C  0.10918056  0.85441770  0.84740635    -0.11500
C462        C  0.11650308  0.87866745  0.84385379     0.15000
C463        C  0.13234441  0.88789186  0.81443014     0.01900
C464        C  0.13575767  0.87285699  0.78881527    -0.15900
C465        C  0.12465410  0.84841130  0.79164700    -0.10700
C466        C  0.11430841  0.83915452  0.82199749     0.08600
C467        C  0.10679834  0.89366661  0.87149898     0.09700
S468        S  0.14919684  0.91868377  0.80803557    -0.25000
H469        H  0.14919588  0.88076438  0.76692233     0.19900
S470        S  0.10790474  0.80791296  0.82915905    -0.30700
H471        H  0.09888082  0.84748565  0.87037651     0.10200
C472        C  0.04710584  0.90728755  0.87542611     0.03400
C473        C  0.03747968  0.91959755  0.90328984    -0.13000
C474        C  0.08528910  0.91789911  0.92756997    -0.08700
C475        C  0.14589146  0.90474232  0.92320440     0.06900
C476        C  0.15585869  0.89274467  0.89529626    -0.13800
S477        S  0.98089555  0.90758446  0.84598266    -0.30700
H478        H  0.99078850  0.92950272  0.90688043     0.11100
S479        S  0.21203156  0.90236725  0.95242198    -0.27800
H480        H  0.20171297  0.88227282  0.89224716     0.08400
H481        H  0.09569646  0.80907693  0.86129753     0.26800
H482        H  0.93133258  0.91960349  0.86355812     0.21600
H483        H  0.20088442  0.92456144  0.96571026     0.26900
H484        H  0.17496741  0.92354333  0.83786718     0.15700
C485        C  0.14862361  0.86265899  0.63230288    -0.11500
C486        C  0.08226645  0.86075147  0.61960696     0.15000
C487        C  0.03367270  0.84554208  0.63362539     0.01900
C488        C  0.05173704  0.83338616  0.66058965    -0.15900
C489        C  0.11647965  0.83664174  0.67435004    -0.10700
C490        C  0.16608967  0.85089156  0.65956955     0.08600
C491        C  0.06570365  0.87520532  0.59212132     0.09700
S492        S  0.94672397  0.84201367  0.61958123    -0.25000
H493        H  0.01330032  0.82260802  0.67215335     0.19900
S494        S  0.25160146  0.85526878  0.67494254    -0.30700
H495        H  0.18659677  0.87392600  0.62125593     0.10200
C496        C  0.06531652  0.89988458  0.59395380     0.03400
C497        C  0.05517350  0.91308372  0.56695492    -0.13000
C498        C  0.04435755  0.90217375  0.53806141    -0.08700
C499        C  0.03995834  0.87734250  0.53683295     0.06900
C500        C  0.05225768  0.86420679  0.56365824    -0.13800
S501        S  0.07694821  0.91464216  0.63077696    -0.30700
H502        H  0.05733591  0.93201899  0.56831162     0.11100
S503        S  0.01623969  0.86126774  0.50234310    -0.27800
H504        H  0.05098097  0.84522506  0.56240475     0.08400
H505        H  0.25505965  0.83371817  0.69066793     0.26800
H506        H  0.07748749  0.93768162  0.61915126     0.21600
H507        H  0.96721922  0.87772216  0.49247755     0.26900
H508        H  0.93978409  0.86494993  0.60813716     0.15700
C509        C  0.89598001  0.22478334  0.86559784    -0.11500
C510        C  0.94425264  0.22867704  0.88909691     0.15000
C511        C  0.99507949  0.24609290  0.88532403     0.01900
C512        C  0.99998927  0.25803541  0.85719395    -0.15900
C513        C  0.95497811  0.25316350  0.83225903    -0.10700
C514        C  0.89948541  0.23717819  0.83755143     0.08600
C515        C  0.94500180  0.21276366  0.91595062     0.09700
S516        S  0.05696671  0.25327079  0.91518877    -0.25000
H517        H  0.03944492  0.27139774  0.85560324     0.19900
S518        S  0.83288961  0.23191973  0.80885644    -0.30700
H519        H  0.85645505  0.21152977  0.86906459     0.10200
C520        C  0.90569195  0.21713379  0.94270832     0.03400
C521        C  0.91350416  0.20256165  0.96864982    -0.13000
C522        C  0.95880682  0.18344645  0.96794171    -0.08700
C523        C  0.99626289  0.17873437  0.94049199     0.06900
C524        C  0.98860038  0.19336820  0.91481993    -0.13800
S525        S  0.84774974  0.24172089  0.94405865    -0.30700
H526        H  0.88459247  0.20610234  0.98958443     0.11100
S527        S  0.05796929  0.15538760  0.93718433    -0.27800
H528        H  0.01857783  0.19008869  0.89407990     0.08400
H529        H  0.78965302  0.21793599  0.82748903     0.26800
H530        H  0.81750426  0.23610392  0.97279719     0.21600
H531        H  0.08676240  0.15903827  0.96679790     0.26900
H532        H  0.01358459  0.24851985  0.94050634     0.15700
C533        C  0.03042895  0.20673664  0.61135763    -0.11500
C534        C  0.99263505  0.19840744  0.63675009     0.15000
C535        C  0.95614994  0.17700111  0.63431265     0.01900
C536        C  0.95625554  0.16480323  0.60612491    -0.15900
C537        C  0.99210057  0.17353281  0.58029261    -0.10700
C538        C  0.03109579  0.19447457  0.58328151     0.08600
C539        C  0.98812304  0.21337388  0.66455860     0.09700
S540        S  0.90632417  0.16487964  0.66584831    -0.25000
H541        H  0.92606380  0.14882777  0.60401903     0.19900
S542        S  0.08293386  0.20648175  0.55232467    -0.30700
H543        H  0.05878985  0.22310725  0.61332538     0.10200
C544        C  0.04235868  0.21478588  0.68618522     0.03400
C545        C  0.03560270  0.22939082  0.71215984    -0.13000
C546        C  0.97566433  0.24249255  0.71679967    -0.08700
C547        C  0.92133896  0.24089758  0.69518035     0.06900
C548        C  0.92846116  0.22658170  0.66909586    -0.13800
S549        S  0.11908000  0.19751028  0.68110148    -0.30700
H550        H  0.07684437  0.23056714  0.72907865     0.11100
S551        S  0.84087672  0.25582535  0.70032363    -0.27800
H552        H  0.88665969  0.22536495  0.65242759     0.08400
H553        H  0.10080824  0.18465969  0.53947613     0.26800
H554        H  0.15404297  0.20582462  0.70756044     0.21600
H555        H  0.83715716  0.25127166  0.73235233     0.26900
H556        H  0.94634211  0.17448860  0.68995618     0.15700
C557        C  0.86497098  0.45178737  0.67915464    -0.11500
C558        C  0.88447660  0.43764342  0.70435837     0.15000
C559        C  0.92762678  0.44720157  0.72755124     0.01900
C560        C  0.94571162  0.47087874  0.72643383    -0.15900
C561        C  0.92552598  0.48528427  0.70165601    -0.10700
C562        C  0.88574137  0.47545285  0.67737141     0.08600
C563        C  0.85718779  0.41336449  0.70717906     0.09700
S564        S  0.96303037  0.42995377  0.75878391    -0.25000
H565        H  0.97902864  0.47786977  0.74446859     0.19900
S566        S  0.85876651  0.49217408  0.64411063    -0.30700
H567        H  0.83257023  0.44444934  0.66105684     0.10200
C568        C  0.81151043  0.40727665  0.73136954     0.03400
C569        C  0.79528990  0.38363595  0.73656144    -0.13000
C570        C  0.82272747  0.36589812  0.71775625    -0.08700
C571        C  0.86400915  0.37215064  0.69203700     0.06900
C572        C  0.88155022  0.39578890  0.68723532    -0.13800
S573        S  0.77485179  0.42960174  0.75604890    -0.30700
H574        H  0.76275445  0.37881531  0.75598774     0.11100
S575        S  0.89521221  0.35083506  0.66456322    -0.27800
H576        H  0.91571453  0.40045773  0.66829789     0.08400
H577        H  0.85855836  0.51406187  0.65917142     0.26800
H578        H  0.73504246  0.41446305  0.77465446     0.21600
H579        H  0.84221716  0.33428930  0.66913674     0.26900
H580        H  0.96675743  0.40882745  0.74202906     0.15700
C581        C  0.91932149  0.69083447  0.67031790    -0.11500
C582        C  0.94679639  0.67508578  0.69192085     0.15000
C583        C  0.98444171  0.68392922  0.71760004     0.01900
C584        C  0.98879080  0.70817715  0.72237274    -0.15900
C585        C  0.95767637  0.72389935  0.70177724    -0.10700
C586        C  0.92494488  0.71509160  0.67480045     0.08600
C587        C  0.93603798  0.64959916  0.68704486     0.09700
S588        S  0.02700196  0.66538646  0.74554526    -0.25000
H589        H  0.01433371  0.71479792  0.74298376     0.19900
S590        S  0.88856728  0.73392781  0.64554386    -0.30700
H591        H  0.89234263  0.68417135  0.65010540     0.10200
C592        C  0.89578397  0.63599519  0.70750750     0.03400
C593        C  0.89831079  0.61143195  0.70563063    -0.13000
C594        C  0.93969592  0.60014396  0.68338219    -0.08700
C595        C  0.97155921  0.61413751  0.66007513     0.06900
C596        C  0.97024799  0.63859851  0.66252975    -0.13800
S597        S  0.84423292  0.64989004  0.73706350    -0.30700
H598        H  0.87223023  0.60106242  0.72308049     0.11100
S599        S  0.02019150  0.60232843  0.62816099    -0.27800
H600        H  0.99893157  0.64911626  0.64603707     0.08400
H601        H  0.93202896  0.75324475  0.65149206     0.26800
H602        H  0.81127872  0.62936485  0.74764924     0.21600
H603        H  0.96999102  0.58527278  0.62087471     0.26900
H604        H  0.03568518  0.64576597  0.72624756     0.15700
C605        C  0.68873831  0.77914974  0.75480564    -0.11500
C606        C  0.65893138  0.79430342  0.73306162     0.15000
C607        C  0.70234959  0.80797660  0.71375292     0.01900
C608        C  0.77369117  0.80429677  0.71437987    -0.15900
C609        C  0.80265092  0.78764771  0.73437386    -0.10700
C610        C  0.75989272  0.77587129  0.75588547     0.08600
C611        C  0.58296200  0.79315877  0.72923613     0.09700
S612        S  0.66994133  0.82945152  0.68682513    -0.25000
H613        H  0.80637236  0.81356226  0.69803704     0.19900
S614        S  0.79283002  0.75546356  0.78411456    -0.30700
H615        H  0.65599879  0.76893467  0.77012152     0.10200
C616        C  0.55289834  0.78250389  0.70286451     0.03400
C617        C  0.48155119  0.77857502  0.70205657    -0.13000
C618        C  0.43959421  0.78400335  0.72760172    -0.08700
C619        C  0.46996647  0.79450955  0.75409122     0.06900
C620        C  0.54078265  0.79941992  0.75432565    -0.13800
S621        S  0.60571934  0.77197330  0.67131495    -0.30700
H622        H  0.45849524  0.77032028  0.68190249     0.11100
S623        S  0.42281062  0.80007466  0.78935429    -0.27800
H624        H  0.56395990  0.80690306  0.77498796     0.08400
H625        H  0.85881543  0.76563918  0.78627989     0.26800
H626        H  0.55357182  0.75948268  0.65562563     0.21600
H627        H  0.38215294  0.77960536  0.78774325     0.26900
H628        H  0.60620322  0.83285395  0.70152006     0.15700
C629        C  0.28839959  0.67796309  0.73567627    -0.11500
C630        C  0.23778360  0.67012679  0.71477854     0.15000
C631        C  0.20216874  0.68681930  0.69657888     0.01900
C632        C  0.21933920  0.71062577  0.69924011    -0.15900
C633        C  0.26911795  0.71847024  0.72055959    -0.10700
C634        C  0.30315221  0.70182559  0.73935280     0.08600
C635        C  0.21882832  0.64485744  0.71533514     0.09700
S636        S  0.13284832  0.67945034  0.67029078    -0.25000
H637        H  0.19253972  0.72324159  0.68495150     0.19900
S638        S  0.36209567  0.70980517  0.77005696    -0.30700
H639        H  0.31459535  0.66539557  0.75025102     0.10200
C640        C  0.22517134  0.63015713  0.68922413     0.03400
C641        C  0.19946976  0.60711215  0.69062269    -0.13000
C642        C  0.16886321  0.59812689  0.71785740    -0.08700
C643        C  0.16903493  0.61237583  0.74494887     0.06900
C644        C  0.19344370  0.63550095  0.74313747    -0.13800
S645        S  0.26558829  0.64071669  0.65410411    -0.30700
H646        H  0.20109703  0.59635095  0.66990744     0.11100
S647        S  0.13857664  0.60187744  0.78216784    -0.27800
H648        H  0.19133296  0.64671409  0.76345240     0.08400
H649        H  0.32727096  0.73034519  0.77871422     0.26800
H650        H  0.25714454  0.62005203  0.63662082     0.21600
H651        H  0.13784696  0.62363788  0.79756596     0.26900
H652        H  0.11223971  0.65848303  0.68458027     0.15700
C653        C  0.40490646  0.29130894  0.71726342    -0.11500
C654        C  0.43841978  0.28603111  0.74521446     0.15000
C655        C  0.39815552  0.28058747  0.77163835     0.01900
C656        C  0.32618082  0.28283838  0.77035163    -0.15900
C657        C  0.29325225  0.29032101  0.74311651    -0.10700
C658        C  0.33311243  0.29329335  0.71587245     0.08600
C659        C  0.51411962  0.29031603  0.74719305     0.09700
S660        S  0.43610948  0.27237765  0.80820333    -0.25000
H661        H  0.29635912  0.28059376  0.79141365     0.19900
S662        S  0.29565856  0.30191729  0.67932358    -0.30700
H663        H  0.43518552  0.29539559  0.69681683     0.10200
C664        C  0.56240860  0.27615451  0.73162902     0.03400
C665        C  0.63265472  0.28258307  0.73178694    -0.13000
C666        C  0.65554752  0.30304401  0.74700035    -0.08700
C667        C  0.60717582  0.31660120  0.76363856     0.06900
C668        C  0.53741877  0.31023396  0.76330851    -0.13800
S669        S  0.53431780  0.25004294  0.71144168    -0.30700
H670        H  0.66958347  0.27212503  0.71915043     0.11100
S671        S  0.63101914  0.34232093  0.78570456    -0.27800
H672        H  0.50060726  0.32115902  0.77536191     0.08400
H673        H  0.22925860  0.29317779  0.68568157     0.26800
H674        H  0.59991928  0.24286328  0.70159657     0.21600
H675        H  0.69735180  0.33459615  0.79358868     0.26900
H676        H  0.49695894  0.26315725  0.79559479     0.15700
C677        C  0.12531301  0.40122652  0.72401026    -0.11500
C678        C  0.17429192  0.41314681  0.74219100     0.15000
C679        C  0.21779160  0.40036701  0.76203071     0.01900
C680        C  0.21075270  0.37599950  0.76352368    -0.15900
C681        C  0.16263871  0.36396370  0.74485653    -0.10700
C682        C  0.12013174  0.37680165  0.72457824     0.08600
C683        C  0.17649307  0.43895604  0.74039180     0.09700
S684        S  0.28379222  0.41396791  0.78554915    -0.25000
H685        H  0.24385516  0.36628563  0.77902183     0.19900
S686        S  0.06097704  0.36313403  0.69778791    -0.30700
H687        H  0.09185014  0.41104837  0.70877047     0.10200
C688        C  0.19597812  0.45040164  0.71287467     0.03400
C689        C  0.18419200  0.47445769  0.70988836    -0.13000
C690        C  0.15337434  0.48741528  0.73397866    -0.08700
C691        C  0.14262039  0.47628620  0.76310132     0.06900
C692        C  0.15313377  0.45207308  0.76567384    -0.13800
S693        S  0.23322062  0.43414186  0.68108172    -0.30700
H694        H  0.19492188  0.48279148  0.68782154     0.11100
S695        S  0.11281392  0.49199896  0.79695699    -0.27800
H696        H  0.13998471  0.44304842  0.78701099     0.08400
H697        H  0.10248528  0.34360371  0.69143414     0.26800
H698        H  0.24931644  0.45362241  0.66237228     0.21600
H699        H  0.12425431  0.47402202  0.81865806     0.26900
H700        H  0.29582837  0.43328851  0.76601783     0.15700
loop_ 
_geom_bond_atom_site_label_1 
_geom_bond_atom_site_label_2 
_geom_bond_distance 
_geom_bond_site_symmetry_2 
_ccdc_geom_bond_type 
C1            C2   1.410       .  A
C1            C6   1.398       .  A
C1          C307   1.487       .  S
C2            C3   1.417       .  A
C2            H7   1.082       .  S
C3            C4   1.399       .  A
C3           C58   1.480       .  S
C4            C5   1.401       .  A
C4            H8   1.086       .  S
C5            C6   1.397       .  A
C5          C331   1.476       .  S
C6            H9   1.084       .  S
C10          C11   1.406       .  A
C10          C15   1.404       .  A
C10         C268   1.488       .  S
C11          C12   1.408       .  A
C11          H16   1.085       .  S
C12          C13   1.400       .  A
C12          C65   1.480       .  S
C13          C14   1.404       .  A
C13          H17   1.079       .  S
C14          C15   1.404       .  A
C14         C283   1.484       .  S
C15          H18   1.084       .  S
C19          C20   1.403       .  A
C19          C24   1.398       .  A
C19         C259   1.481       .  S
C20          C21   1.413       .  A
C20          H25   1.083       .  S
C21          C22   1.408   1_655  A
C21          C70   1.489   1_655  S
C22          C23   1.404   1_455  A
C22          H26   1.078       .  S
C23          C24   1.398       .  A
C23         C235   1.478       .  S
C24          H27   1.086       .  S
O28         Ni36   1.913   1_655  S
O28          C38   1.282       .  A
O29         Ni36   1.913       .  S
O29          C39   1.280       .  A
O30         Ni36   1.908       .  S
O30          C40   1.278       .  A
O31         Ni36   1.907   1_655  S
O31          C41   1.280       .  A
O32         Ni37   1.927   1_655  S
O32          C41   1.282       .  A
O33         Ni37   1.921       .  S
O33          C40   1.283       .  A
O34         Ni37   1.909       .  S
O34          C39   1.281       .  A
O35         Ni37   1.912   1_655  S
O35          C38   1.279       .  A
Ni36        Ni37   2.382       .  S
C38         C244   1.489       .  S
C39         C340   1.488       .  S
C40         C292   1.492       .  S
C41         C211   1.478       .  S
C42          C43   1.403       .  A
C42          C47   1.406       .  A
C42         C316   1.491       .  S
C43          C44   1.403       .  A
C43          H48   1.084       .  S
C44          C45   1.407       .  A
C44         C220   1.480       .  S
C45          C46   1.403       .  A
C45          H49   1.084       .  S
C46          C47   1.413       .  A
C46          C53   1.489       .  S
C47          H50   1.083       .  S
C51          C52   1.532       .  S
C51          C57   1.544   1_655  S
C51          C55   1.538       .  S
C51         C163   1.531       .  S
C52          H59   1.087       .  S
C52          C53   1.362       .  D
C53          C54   1.547       .  S
C54          C58   1.544   1_655  S
C54          C56   1.538       .  S
C54          H60   1.111       .  S
C55          H61   1.087       .  S
C55          C56   1.363       .  D
C56         C196   1.476       .  S
C57          H62   1.085       .  S
C57          C58   1.361       .  D
C63          C64   1.534       .  S
C63          C69   1.542       .  S
C63          C67   1.544       .  S
C63         C115   1.536       .  S
C64          H71   1.086       .  S
C64          C65   1.362       .  D
C65          C66   1.542       .  S
C66          C70   1.540       .  S
C66          C68   1.532       .  S
C66          H72   1.111       .  S
C67          H73   1.083       .  S
C67          C68   1.364       .  D
C68         C139   1.471       .  S
C69          H74   1.085       .  S
C69          C70   1.367       .  D
C75         C172   1.469       .  S
C75          N80   1.355       .  A
C75         N426   1.353       .  A
N76          C77   1.357       .  A
N76         C425   1.356   1_554  A
C77         C187   1.478       .  S
C77          N78   1.360       .  A
N78          C79   1.359       .  A
C79         C100   1.478       .  S
C79         N430   1.356   1_554  A
N80         C429   1.357       .  A
C81         C124   1.473       .  S
C81          N82   1.358       .  A
C81         N436   1.356       .  A
N82         C433   1.360       .  A
C83          C91   1.488       .  S
C83          N84   1.360   1_556  A
C83         N432   1.362       .  A
N84          C85   1.360       .  A
C85         C148   1.486       .  S
C85          N86   1.354   1_554  A
N86         C431   1.354       .  A
C87          C88   1.400   1_655  A
C87          C92   1.401   1_545  A
C87          H97   1.083       .  S
C88         C439   1.410   1_554  A
C88          C93   1.476   1_455  S
C89          C90   1.398   1_545  A
C89         C438   1.411   1_455  A
C89          S94   1.804       .  S
C90         C441   1.406       .  A
C90          H95   1.083       .  S
C91          C92   1.419   1_456  A
C91         C440   1.407       .  A
C92          S96   1.803       .  S
C93         C102   1.402   1_655  A
C93         C448   1.407   1_554  A
S94         H110   1.406       .  S
S96         H107   1.407       .  S
C98          C99   1.402       .  A
C98         C443   1.409       .  A
C98         S103   1.806       .  S
C99         C450   1.403       .  A
C99         H104   1.083       .  S
C100        C101   1.415   1_655  A
C100        C449   1.405   1_554  A
C101        C102   1.400       .  A
C101        S105   1.803       .  S
C102        H106   1.084       .  S
S103        H108   1.407       .  S
S105        H109   1.407       .  S
C111        C112   1.398       .  A
C111        C116   1.400       .  A
C111        H121   1.085       .  S
C112        C113   1.407       .  A
C112        C117   1.478       .  S
C113        C114   1.398       .  A
C113        S118   1.806       .  S
C114        C115   1.414       .  A
C114        H119   1.079       .  S
C115        C116   1.424       .  A
C116        S120   1.812       .  S
C117        C122   1.410       .  A
C117        C126   1.401       .  A
S118        H134   1.405       .  S
S120        H131   1.406       .  S
C122        C123   1.402       .  A
C122        S127   1.807   1_455  S
C123        C124   1.403       .  A
C123        H128   1.083   1_455  S
C124        C125   1.414       .  A
C125        C126   1.397       .  A
C125        S129   1.804       .  S
C126        H130   1.084       .  S
S127        H132   1.407       .  S
S129        H133   1.407       .  S
C135        C136   1.403       .  A
C135        C140   1.396       .  A
C135        H145   1.085       .  S
C136        C137   1.414       .  A
C136        C141   1.478       .  S
C137        C138   1.399       .  A
C137        S142   1.804   1_455  S
C138        C139   1.402       .  A
C138        H143   1.085       .  S
C139        C140   1.409       .  A
C140        S144   1.803       .  S
C141        C146   1.409       .  A
C141        C150   1.399       .  A
S142        H158   1.405       .  S
S144        H155   1.406       .  S
C146        C147   1.401       .  A
C146        S151   1.808       .  S
C147        C148   1.406       .  A
C147        H152   1.081       .  S
C148        C149   1.420       .  A
C149        C150   1.398       .  A
C149        S153   1.803       .  S
C150        H154   1.083       .  S
S151        H156   1.407       .  S
S153        H157   1.408   1_454  S
C159        C160   1.396       .  A
C159        C164   1.401       .  A
C159        H169   1.086       .  S
C160        C161   1.405       .  A
C160        C165   1.470       .  S
C161        C162   1.393       .  A
C161        S166   1.806   1_655  S
C162        C163   1.410       .  A
C162        H167   1.082   1_655  S
C163        C164   1.424       .  A
C164        S168   1.813       .  S
C165        C170   1.406       .  A
C165        C174   1.400       .  A
S166        H182   1.404   1_455  S
S168        H179   1.406       .  S
C170        C171   1.401       .  A
C170        S175   1.805       .  S
C171        C172   1.405       .  A
C171        H176   1.082       .  S
C172        C173   1.413       .  A
C173        C174   1.395       .  A
C173        S177   1.803   1_655  S
C174        H178   1.083   1_655  S
S175        H180   1.407       .  S
S177        H181   1.407       .  S
C183        C184   1.400   1_455  A
C183        C188   1.398       .  A
C183        H193   1.082       .  S
C184        C185   1.412       .  A
C184        C189   1.473       .  S
C185        C186   1.399       .  A
C185        S190   1.807       .  S
C186        C187   1.404       .  A
C186        H191   1.081       .  S
C187        C188   1.416   1_655  A
C188        S192   1.803       .  S
C189        C194   1.408   1_655  A
C189        C198   1.400       .  A
S190        H206   1.402       .  S
S192        H203   1.407       .  S
C194        C195   1.402       .  A
C194        S199   1.805       .  S
C195        C196   1.404   1_455  A
C195        H200   1.084       .  S
C196        C197   1.410       .  A
C197        C198   1.396       .  A
C197        S201   1.799       .  S
C198        H202   1.085       .  S
S199        H204   1.407       .  S
S201        H205   1.406       .  S
C207        C208   1.408       .  A
C207        C212   1.408       .  A
C207        H217   1.084       .  S
C208        C209   1.411       .  A
C208        C213   1.485       .  S
C209        C210   1.392       .  A
C209        S214   1.807       .  S
C210        C211   1.405       .  A
C210        H215   1.085       .  S
C211        C212   1.414       .  A
C212        S216   1.802       .  S
C213        C218   1.412       .  A
C213        C222   1.404       .  A
S214        H230   1.406       .  S
S216        H227   1.406       .  S
C218        C219   1.400       .  A
C218        S223   1.809       .  S
C219        C220   1.403       .  A
C219        H224   1.083       .  S
C220        C221   1.412       .  A
C221        C222   1.403       .  A
C221        S225   1.804       .  S
C222        H226   1.084       .  S
S223        H228   1.407       .  S
S225        H229   1.406       .  S
C231        C232   1.402       .  A
C231        C236   1.400       .  A
C231        H241   1.083       .  S
C232        C233   1.416       .  A
C232        C237   1.480       .  S
C233        C234   1.399       .  A
C233        S238   1.807   1_655  S
C234        C235   1.401       .  A
C234        H239   1.083   1_655  S
C235        C236   1.413       .  A
C236        S240   1.803       .  S
C237        C242   1.409       .  A
C237        C246   1.398       .  A
S238        H254   1.405       .  S
S240        H251   1.407       .  S
C242        C243   1.404       .  A
C242        S247   1.806       .  S
C243        C244   1.408       .  A
C243        H248   1.081       .  S
C244        C245   1.422       .  A
C245        C246   1.399       .  A
C245        S249   1.801   1_655  S
C246        H250   1.082   1_655  S
S247        H252   1.407       .  S
S249        H253   1.408   1_455  S
C255        C256   1.402       .  A
C255        C260   1.398       .  A
C255        H265   1.084       .  S
C256        C257   1.415       .  A
C256        C261   1.487       .  S
C257        C258   1.404       .  A
C257        S262   1.803       .  S
C258        C259   1.404       .  A
C258        H263   1.084       .  S
C259        C260   1.413       .  A
C260        S264   1.804       .  S
C261        C266   1.412       .  A
C261        C270   1.404       .  A
S262        H278   1.406       .  S
S264        H275   1.406       .  S
C266        C267   1.403       .  A
C266        S271   1.808       .  S
C267        C268   1.405       .  A
C267        H272   1.083       .  S
C268        C269   1.416       .  A
C269        C270   1.403       .  A
C269        S273   1.803       .  S
C270        H274   1.084       .  S
S271        H276   1.407       .  S
S273        H277   1.407       .  S
C279        C280   1.404       .  A
C279        C284   1.397       .  A
C279        H289   1.084       .  S
C280        C281   1.418       .  A
C280        C285   1.486       .  S
C281        C282   1.400       .  A
C281        S286   1.806       .  S
C282        C283   1.404       .  A
C282        H287   1.085       .  S
C283        C284   1.415       .  A
C284        S288   1.805       .  S
C285        C290   1.409       .  A
C285        C294   1.401       .  A
S286        H302   1.402       .  S
S288        H299   1.407       .  S
C290        C291   1.403       .  A
C290        S295   1.807       .  S
C291        C292   1.410       .  A
C291        H296   1.084       .  S
C292        C293   1.420       .  A
C293        C294   1.400       .  A
C293        S297   1.811       .  S
C294        H298   1.085       .  S
S295        H300   1.406       .  S
S297        H301   1.407       .  S
C303        C304   1.403       .  A
C303        C308   1.401       .  A
C303        H313   1.083       .  S
C304        C305   1.415       .  A
C304        C309   1.491       .  S
C305        C306   1.406       .  A
C305        S310   1.803       .  S
C306        C307   1.404       .  A
C306        H311   1.083       .  S
C307        C308   1.415       .  A
C308        S312   1.804       .  S
C309        C314   1.411       .  A
C309        C318   1.403       .  A
S310        H326   1.406       .  S
S312        H323   1.407       .  S
C314        C315   1.410       .  A
C314        S319   1.805       .  S
C315        C316   1.407       .  A
C315        H320   1.083       .  S
C316        C317   1.416       .  A
C317        C318   1.401       .  A
C317        S321   1.805       .  S
C318        H322   1.084       .  S
S319        H324   1.407       .  S
S321        H325   1.407       .  S
C327        C328   1.404       .  A
C327        C332   1.396       .  A
C327        H337   1.083       .  S
C328        C329   1.409       .  A
C328        C333   1.473       .  S
C329        C330   1.396       .  A
C329        S334   1.804       .  S
C330        C331   1.407       .  A
C330        H335   1.083       .  S
C331        C332   1.411       .  A
C332        S336   1.802       .  S
C333        C338   1.405       .  A
C333        C342   1.399       .  A
S334        H350   1.406       .  S
S336        H347   1.406       .  S
C338        C339   1.397       .  A
C338        S343   1.808       .  S
C339        C340   1.409       .  A
C339        H344   1.082       .  S
C340        C341   1.420       .  A
C341        C342   1.402       .  A
C341        S345   1.808       .  S
C342        H346   1.083       .  S
S343        H348   1.407       .  S
S345        H349   1.407       .  S
C351        C352   1.411       .  A
C351        C356   1.398       .  A
C351        C657   1.488       .  S
C352        C353   1.417       .  A
C352        H357   1.082       .  S
C353        C354   1.401       .  A
C353        C408   1.483       .  S
C354        C355   1.403       .  A
C354        H358   1.086       .  S
C355        C356   1.397       .  A
C355        C681   1.477       .  S
C356        H359   1.084       .  S
C360        C361   1.406       .  A
C360        C365   1.403       .  A
C360        C618   1.487       .  S
C361        C362   1.408       .  A
C361        H366   1.086       .  S
C362        C363   1.402       .  A
C362        C415   1.482       .  S
C363        C364   1.405       .  A
C363        H367   1.080       .  S
C364        C365   1.402       .  A
C364        C633   1.484       .  S
C365        H368   1.084       .  S
C369        C370   1.402       .  A
C369        C374   1.397       .  A
C369        C609   1.479       .  S
C370        C371   1.412       .  A
C370        H375   1.083       .  S
C371        C372   1.409   1_655  A
C371        C420   1.489   1_655  S
C372        C373   1.406   1_455  A
C372        H376   1.081       .  S
C373        C374   1.398       .  A
C373        C585   1.480       .  S
C374        H377   1.084       .  S
O378       Ni386   1.914   1_655  S
O378        C388   1.282       .  A
O379       Ni386   1.912       .  S
O379        C389   1.279       .  A
O380       Ni386   1.910       .  S
O380        C390   1.279       .  A
O381       Ni386   1.910   1_655  S
O381        C391   1.281       .  A
O382       Ni387   1.927   1_655  S
O382        C391   1.282       .  A
O383       Ni387   1.921       .  S
O383        C390   1.283       .  A
O384       Ni387   1.912       .  S
O384        C389   1.282       .  A
O385       Ni387   1.915   1_655  S
O385        C388   1.280       .  A
Ni386      Ni387   2.381       .  S
C388        C594   1.491       .  S
C389        C690   1.490       .  S
C390        C642   1.494       .  S
C391        C561   1.479       .  S
C392        C393   1.403       .  A
C392        C397   1.406       .  A
C392        C666   1.491       .  S
C393        C394   1.403       .  A
C393        H398   1.083       .  S
C394        C395   1.407       .  A
C394        C570   1.481       .  S
C395        C396   1.403       .  A
C395        H399   1.084       .  S
C396        C397   1.414       .  A
C396        C403   1.489       .  S
C397        H400   1.084       .  S
C401        C402   1.534       .  S
C401        C407   1.547   1_655  S
C401        C405   1.537       .  S
C401        C513   1.534       .  S
C402        H409   1.087       .  S
C402        C403   1.363       .  D
C403        C404   1.546       .  S
C404        C408   1.545   1_655  S
C404        C406   1.537       .  S
C404        H410   1.111       .  S
C405        H411   1.087       .  S
C405        C406   1.362       .  D
C406        C546   1.472       .  S
C407        H412   1.084       .  S
C407        C408   1.362       .  D
C413        C414   1.536       .  S
C413        C419   1.541       .  S
C413        C417   1.545       .  S
C413        C465   1.539       .  S
C414        H421   1.086       .  S
C414        C415   1.364       .  D
C415        C416   1.542       .  S
C416        C420   1.540       .  S
C416        C418   1.533       .  S
C416        H422   1.111       .  S
C417        H423   1.082       .  S
C417        C418   1.364       .  D
C418        C489   1.472       .  S
C419        H424   1.086       .  S
C419        C420   1.367       .  D
C425        C522   1.474       .  S
C425        N430   1.355       .  A
N426        C427   1.356       .  A
C427        C537   1.474       .  S
C427        N428   1.361       .  A
N428        C429   1.361       .  A
C429        C450   1.472       .  S
C431        C474   1.471       .  S
C431        N432   1.357       .  A
C433        C441   1.483       .  S
C433        N434   1.359       .  A
N434        C435   1.360       .  A
C435        C498   1.485       .  S
C435        N436   1.356       .  A
C437        C438   1.402       .  A
C437        C442   1.401   1_545  A
C437        H447   1.083       .  S
C438        C443   1.479       .  S
C439        C440   1.398   1_545  A
C439        S444   1.806       .  S
C440        H445   1.083       .  S
C441        C442   1.417   1_455  A
C442        S446   1.803       .  S
C443        C452   1.403   1_655  A
S444        H460   1.404       .  S
S446        H457   1.407       .  S
C448        C449   1.401       .  A
C448        S453   1.806       .  S
C449        H454   1.083       .  S
C450        C451   1.413   1_655  A
C451        C452   1.400       .  A
C451        S455   1.804       .  S
C452        H456   1.083       .  S
S453        H458   1.407       .  S
S455        H459   1.407       .  S
C461        C462   1.398       .  A
C461        C466   1.402       .  A
C461        H471   1.084       .  S
C462        C463   1.406       .  A
C462        C467   1.478       .  S
C463        C464   1.398       .  A
C463        S468   1.806       .  S
C464        C465   1.415       .  A
C464        H469   1.077       .  S
C465        C466   1.424       .  A
C466        S470   1.812       .  S
C467        C472   1.410       .  A
C467        C476   1.401       .  A
S468        H484   1.406       .  S
S470        H481   1.406       .  S
C472        C473   1.403       .  A
C472        S477   1.806   1_455  S
C473        C474   1.402       .  A
C473        H478   1.083   1_455  S
C474        C475   1.413       .  A
C475        C476   1.397       .  A
C475        S479   1.804       .  S
C476        H480   1.084       .  S
S477        H482   1.407       .  S
S479        H483   1.407       .  S
C485        C486   1.404       .  A
C485        C490   1.396       .  A
C485        H495   1.085       .  S
C486        C487   1.414       .  A
C486        C491   1.480       .  S
C487        C488   1.399       .  A
C487        S492   1.804   1_455  S
C488        C489   1.401       .  A
C488        H493   1.085       .  S
C489        C490   1.409       .  A
C490        S494   1.804       .  S
C491        C496   1.410       .  A
C491        C500   1.400       .  A
S492        H508   1.406       .  S
S494        H505   1.406       .  S
C496        C497   1.401       .  A
C496        S501   1.808       .  S
C497        C498   1.406       .  A
C497        H502   1.082       .  S
C498        C499   1.419       .  A
C499        C500   1.399       .  A
C499        S503   1.803       .  S
C500        H504   1.084       .  S
S501        H506   1.407       .  S
S503        H507   1.408   1_455  S
C509        C510   1.396       .  A
C509        C514   1.402       .  A
C509        H519   1.084       .  S
C510        C511   1.405       .  A
C510        C515   1.471       .  S
C511        C512   1.394       .  A
C511        S516   1.805   1_655  S
C512        C513   1.411       .  A
C512        H517   1.079   1_655  S
C513        C514   1.426       .  A
C514        S518   1.812       .  S
C515        C520   1.406       .  A
C515        C524   1.399       .  A
S516        H532   1.404       .  S
S518        H529   1.407       .  S
C520        C521   1.402       .  A
C520        S525   1.805       .  S
C521        C522   1.406       .  A
C521        H526   1.082       .  S
C522        C523   1.415       .  A
C523        C524   1.395       .  A
C523        S527   1.803   1_655  S
C524        H528   1.083   1_655  S
S525        H530   1.407       .  S
S527        H531   1.407       .  S
C533        C534   1.399   1_455  A
C533        C538   1.396       .  A
C533        H543   1.084       .  S
C534        C535   1.411       .  A
C534        C539   1.473       .  S
C535        C536   1.399       .  A
C535        S540   1.804       .  S
C536        C537   1.403       .  A
C536        H541   1.084       .  S
C537        C538   1.416   1_655  A
C538        S542   1.804       .  S
C539        C544   1.408   1_655  A
C539        C548   1.400       .  A
S540        H556   1.405       .  S
S542        H553   1.407       .  S
C544        C545   1.401       .  A
C544        S549   1.806       .  S
C545        C546   1.402   1_455  A
C545        H550   1.085       .  S
C546        C547   1.410       .  A
C547        C548   1.396       .  A
C547        S551   1.799       .  S
C548        H552   1.086       .  S
S549        H554   1.407       .  S
S551        H555   1.406       .  S
C557        C558   1.407       .  A
C557        C562   1.408       .  A
C557        H567   1.084       .  S
C558        C559   1.411       .  A
C558        C563   1.484       .  S
C559        C560   1.394       .  A
C559        S564   1.806       .  S
C560        C561   1.405       .  A
C560        H565   1.085       .  S
C561        C562   1.414       .  A
C562        S566   1.802       .  S
C563        C568   1.411       .  A
C563        C572   1.404       .  A
S564        H580   1.406       .  S
S566        H577   1.406       .  S
C568        C569   1.401       .  A
C568        S573   1.808       .  S
C569        C570   1.403       .  A
C569        H574   1.083       .  S
C570        C571   1.413       .  A
C571        C572   1.404       .  A
C571        S575   1.804       .  S
C572        H576   1.084       .  S
S573        H578   1.407       .  S
S575        H579   1.406       .  S
C581        C582   1.402       .  A
C581        C586   1.400       .  A
C581        H591   1.083       .  S
C582        C583   1.416       .  A
C582        C587   1.482       .  S
C583        C584   1.400       .  A
C583        S588   1.807   1_655  S
C584        C585   1.402       .  A
C584        H589   1.083   1_655  S
C585        C586   1.414       .  A
C586        S590   1.804       .  S
C587        C592   1.409       .  A
C587        C596   1.398       .  A
S588        H604   1.404       .  S
S590        H601   1.407       .  S
C592        C593   1.404       .  A
C592        S597   1.806       .  S
C593        C594   1.409       .  A
C593        H598   1.081       .  S
C594        C595   1.423       .  A
C595        C596   1.399       .  A
C595        S599   1.801   1_655  S
C596        H600   1.082       .  S
S597        H602   1.407       .  S
S599        H603   1.408   1_455  S
C605        C606   1.403       .  A
C605        C610   1.397       .  A
C605        H615   1.084       .  S
C606        C607   1.416       .  A
C606        C611   1.486       .  S
C607        C608   1.403       .  A
C607        S612   1.804       .  S
C608        C609   1.403       .  A
C608        H613   1.084       .  S
C609        C610   1.412       .  A
C610        S614   1.804       .  S
C611        C616   1.412       .  A
C611        C620   1.404       .  A
S612        H628   1.405       .  S
S614        H625   1.407       .  S
C616        C617   1.403       .  A
C616        S621   1.808       .  S
C617        C618   1.405       .  A
C617        H622   1.082       .  S
C618        C619   1.415       .  A
C619        C620   1.402       .  A
C619        S623   1.803       .  S
C620        H624   1.083       .  S
S621        H626   1.407       .  S
S623        H627   1.407       .  S
C629        C630   1.403       .  A
C629        C634   1.398       .  A
C629        H639   1.083       .  S
C630        C631   1.418       .  A
C630        C635   1.485       .  S
C631        C632   1.400       .  A
C631        S636   1.806       .  S
C632        C633   1.404       .  A
C632        H637   1.083       .  S
C633        C634   1.415       .  A
C634        S638   1.805       .  S
C635        C640   1.408       .  A
C635        C644   1.400       .  A
S636        H652   1.402       .  S
S638        H649   1.407       .  S
C640        C641   1.404       .  A
C640        S645   1.807       .  S
C641        C642   1.411       .  A
C641        H646   1.083       .  S
C642        C643   1.421       .  A
C643        C644   1.401       .  A
C643        S647   1.810       .  S
C644        H648   1.084       .  S
S645        H650   1.406       .  S
S647        H651   1.407       .  S
C653        C654   1.403       .  A
C653        C658   1.401       .  A
C653        H663   1.084       .  S
C654        C655   1.415       .  A
C654        C659   1.492       .  S
C655        C656   1.406       .  A
C655        S660   1.803       .  S
C656        C657   1.404       .  A
C656        H661   1.084       .  S
C657        C658   1.416       .  A
C658        S662   1.804       .  S
C659        C664   1.411       .  A
C659        C668   1.403       .  A
S660        H676   1.406       .  S
S662        H673   1.407       .  S
C664        C665   1.411       .  A
C664        S669   1.805       .  S
C665        C666   1.407       .  A
C665        H670   1.083       .  S
C666        C667   1.416       .  A
C667        C668   1.401       .  A
C667        S671   1.805       .  S
C668        H672   1.084       .  S
S669        H674   1.407       .  S
S671        H675   1.406       .  S
C677        C678   1.404       .  A
C677        C682   1.396       .  A
C677        H687   1.083       .  S
C678        C679   1.409       .  A
C678        C683   1.474       .  S
C679        C680   1.397       .  A
C679        S684   1.804       .  S
C680        C681   1.407       .  A
C680        H685   1.082       .  S
C681        C682   1.411       .  A
C682        S686   1.801       .  S
C683        C688   1.405       .  A
C683        C692   1.398       .  A
S684        H700   1.405       .  S
S686        H697   1.406       .  S
C688        C689   1.398       .  A
C688        S693   1.807       .  S
C689        C690   1.409       .  A
C689        H694   1.083       .  S
C690        C691   1.421       .  A
C691        C692   1.402       .  A
C691        S695   1.808       .  S
C692        H696   1.084       .  S
S693        H698   1.407       .  S
S695        H699   1.407       .  S
