geometry optimzed in LAMMPS
_audit_creation_date              2020-11-30 
_audit_creation_method            'lammps2cif' 
_symmetry_space_group_name_H-M    'P1' 
_symmetry_Int_Tables_number       1 
_symmetry_cell_setting            triclinic 
loop_ 
_symmetry_equiv_pos_as_xyz 
  x,y,z 
_cell_length_a                    31.59948965 
_cell_length_b                    38.38895517225664 
_cell_length_c                    50.392703111141614 
_cell_angle_alpha                 90.03087141969428 
_cell_angle_beta                  90.04841898242593 
_cell_angle_gamma                 89.80563632246316 
loop_ 
_atom_site_label 
_atom_site_type_symbol 
_atom_site_fract_x 
_atom_site_fract_y 
_atom_site_fract_z 
_atom_site_charge 
N1          N  0.06151552  0.07691699  0.03168474    -0.33600
N2          N  0.12892547  0.04045899  0.00670574    -0.54200
N3          N  0.17075218  0.02934429  0.05721112    -0.33600
N4          N  0.10231429  0.06408124  0.08279970    -0.54200
C5          C  0.04611006  0.07309022  0.00676834     0.29900
C6          C  0.02785258  0.07782499  0.04831550     0.29900
C7          C  0.18427528  0.00085044  0.04392039     0.29900
C8          C  0.18019097  0.02439280  0.08301377     0.29900
C9          C  0.11154265  0.05352742  0.98439214     0.38600
C10         C  0.16109927  0.01964829  0.99916270     0.38600
C11         C  0.06703814  0.08061892  0.09100572     0.38600
C12         C  0.13031377  0.06590876  0.10296942     0.35400
C13         C  0.00225168  0.07289160  0.00754371    -0.18900
C14         C  0.99074608  0.07561652  0.03365168    -0.18900
C15         C  0.20333087  0.97781630  0.06154555    -0.18900
C16         C  0.20151682  0.99313270  0.08627685    -0.18900
C17         C  0.11367021  0.03673886  0.46816893    -0.20000
C18         C  0.14230089  0.01235870  0.47714778    -0.20000
C19         C  0.07222493  0.09274978  0.11669268    -0.20000
C20         C  0.11286508  0.08400814  0.12413395    -0.20000
C21         C  0.07042450  0.06775047  0.98353931    -0.15300
C22         C  0.02942791  0.08204872  0.07620564    -0.15300
C23         C  0.16862210  0.04714762  0.10356836    -0.15300
C24         C  0.18106291  0.99581778  0.01628681    -0.15300
H25         H  0.98058347  0.06966064  0.99120541     0.17600
H26         H  0.95853085  0.07567112  0.04088598     0.17600
H27         H  0.21748017  0.95279692  0.05701566     0.17600
H28         H  0.21286377  0.98194945  0.10467893     0.17600
H29         H  0.10833260  0.04380667  0.44767626     0.15900
H30         H  0.16366249  0.99707174  0.46501164     0.15900
H31         H  0.04905730  0.10618543  0.12879105     0.15900
H32         H  0.12699157  0.08860405  0.14338782     0.15900
H33         H  0.09306490  0.08094007  0.03672944     0.29100
H34         H  0.15837705  0.05222062  0.04925449     0.29100
N35         N  0.97939690  0.97330337  0.91464696    -0.33600
N36         N  0.91731305  0.01887070  0.93896506    -0.54200
N37         N  0.85162343  0.96734667  0.93141150    -0.33600
N38         N  0.89756738  0.92560752  0.41398959    -0.54200
C39         C  0.00465389  0.99977730  0.92260465     0.29900
C40         C  0.98696737  0.95219145  0.41413499     0.29900
C41         C  0.83291083  0.98677442  0.95054920     0.29900
C42         C  0.82725808  0.93905093  0.92728658     0.29900
C43         C  0.94870368  0.04231939  0.93618883     0.38600
C44         C  0.88491490  0.03543521  0.95111672     0.38600
C45         C  0.93160434  0.90722855  0.40557991     0.38600
C46         C  0.86287327  0.90750444  0.40663193     0.38600
C47         C  0.04616962  0.98801569  0.92419770    -0.18900
C48         C  0.02880729  0.96232089  0.41704653    -0.18900
C49         C  0.79543976  0.97088815  0.95820012    -0.18900
C50         C  0.79143859  0.94107494  0.94306496    -0.18900
C51         C  0.93552066  0.07445756  0.94583907    -0.20000
C52         C  0.89543611  0.06990453  0.95576054    -0.20000
C53         C  0.91864614  0.87675002  0.39340989    -0.20000
C54         C  0.87505047  0.87725694  0.39354305    -0.20000
C55         C  0.99122436  0.03340544  0.93071533    -0.15300
C56         C  0.97416405  0.91747884  0.40897329    -0.15300
C57         C  0.82071443  0.91628345  0.41359782    -0.15300
C58         C  0.84793301  0.01897376  0.96048265    -0.15300
H59         H  0.07386943  0.00258322  0.93000469     0.17600
H60         H  0.05697381  0.94640777  0.41523601     0.17600
H61         H  0.77298039  0.98009675  0.97283675     0.17600
H62         H  0.76595683  0.92236974  0.94425169     0.17600
H63         H  0.95404805  0.09804539  0.94736648     0.15900
H64         H  0.87659285  0.08945333  0.96581742     0.15900
H65         H  0.93853224  0.85668389  0.38484198     0.15900
H66         H  0.85471874  0.85705067  0.38574926     0.15900
H67         H  0.94756129  0.97531158  0.90988657     0.29100
H68         H  0.87768050  0.97395868  0.92005002     0.29100
O69         O  0.83100205  0.40573341  0.10997595    -0.54800
C70         C  0.81435865  0.27119803  0.10253715     0.77800
O71         O  0.87700038  0.34931585  0.15326835    -0.56000
C72         C  0.81669755  0.40593282  0.08659563     0.77800
C73         C  0.75392039  0.35883317  0.15154281     0.80100
Cd74       Cd  0.82325756  0.34342827  0.11805567     1.37500
O75         O  0.81816311  0.28055557  0.12641330    -0.54800
O76         O  0.74901191  0.35698066  0.12672411    -0.53700
C77         C  0.90788531  0.35142578  0.13743870     0.80100
O78         O  0.78999072  0.35167849  0.16089395    -0.56000
O79         O  0.81495159  0.29503665  0.08518383    -0.54500
O80         O  0.80563988  0.37687478  0.07686891    -0.54500
O81         O  0.90013500  0.34768098  0.11295543    -0.53600
O82         O  0.80536631  0.15206606  0.06701027    -0.54800
C83         C  0.81438145  0.06061953  0.03119710     0.77800
O84         O  0.88321844  0.06743646  0.10419420    -0.56000
C85         C  0.80822860  0.16656751  0.08946589     0.77800
C86         C  0.75801256  0.05830983  0.11848718     0.80100
Cd87       Cd  0.81801605  0.09224512  0.08354265     1.37500
O88         O  0.83694659  0.04843831  0.04968621    -0.54800
O89         O  0.74596776  0.07722356  0.09936728    -0.53700
C90         C  0.90735365  0.08977301  0.09370254     0.80100
O91         O  0.79745927  0.05470617  0.12153717    -0.56000
O92         O  0.79108950  0.08638708  0.03692068    -0.54500
O93         O  0.81314552  0.14683339  0.10932758    -0.54500
O94         O  0.89023916  0.11310895  0.07970485    -0.53600
N95         N  0.03075540  0.46339682  0.13860311    -0.33600
N96         N  0.09197708  0.40708155  0.14403432    -0.54200
N97         N  0.15753206  0.45176209  0.12380330    -0.33600
N98         N  0.09550893  0.50594241  0.11571823    -0.54200
C99         C  0.00475918  0.43545546  0.13916271     0.29900
C100        C  0.00783040  0.49062879  0.12940229     0.29900
C101        C  0.17894016  0.42170918  0.12730149     0.29900
C102        C  0.17700209  0.46970720  0.10421677     0.29900
C103        C  0.05735382  0.39171882  0.15436000     0.38600
C104        C  0.12579429  0.38969899  0.15373412     0.38600
C105        C  0.06649399  0.53119007  0.11980729     0.38600
C106        C  0.13006761  0.52151636  0.10559838     0.38600
C107        C  0.96459570  0.44536491  0.13077705    -0.18900
C108        C  0.96650843  0.48015805  0.12479708    -0.18900
C109        C  0.21361118  0.42079014  0.11049155    -0.18900
C110        C  0.21187913  0.45088583  0.09544126    -0.18900
C111        C  0.06893188  0.36383725  0.17020613    -0.20000
C112        C  0.11251898  0.36294169  0.17024024    -0.20000
C113        C  0.07120708  0.56132913  0.60832863    -0.20000
C114        C  0.11072460  0.55574166  0.59773941    -0.20000
C115        C  0.01562013  0.40184888  0.14846077    -0.15300
C116        C  0.02341643  0.52450324  0.12471631    -0.15300
C117        C  0.16522560  0.50334832  0.09537707    -0.15300
C118        C  0.16797310  0.39585527  0.14585777    -0.15300
H119        H  0.93657336  0.42938755  0.12921457     0.17600
H120        H  0.94054509  0.49566385  0.11734521     0.17600
H121        H  0.23702173  0.40025410  0.10885859     0.17600
H122        H  0.23430898  0.45845560  0.08030160     0.17600
H123        H  0.04816332  0.34635648  0.18083005     0.15900
H124        H  0.13209830  0.34406665  0.18048901     0.15900
H125        H  0.05368753  0.58559378  0.60765853     0.15900
H126        H  0.13017218  0.57501594  0.58796793     0.15900
H127        H  0.06134450  0.46474104  0.14614941     0.29100
H128        H  0.13338418  0.46049697  0.13611454     0.29100
N129        N  0.94189982  0.59030762  0.03524384    -0.33600
N130        N  0.88750294  0.56175327  0.47928934    -0.54200
N131        N  0.83481106  0.53750220  0.01217598    -0.33600
N132        N  0.88137052  0.54552815  0.06065227    -0.54200
C133        C  0.96599670  0.57006879  0.50999729     0.29900
C134        C  0.96005969  0.58646990  0.05940554     0.29900
C135        C  0.82290043  0.53482063  0.98662999     0.29900
C136        C  0.82440396  0.50728970  0.02426350     0.29900
C137        C  0.92208466  0.57796798  0.46984489     0.38600
C138        C  0.85692385  0.56610483  0.46098583     0.38600
C139        C  0.89975779  0.55838429  0.08268394     0.38600
C140        C  0.85117927  0.52316680  0.06871155     0.38600
C141        C  0.00452207  0.56471189  0.52261726    -0.18900
C142        C  0.00310608  0.59294513  0.05749753    -0.18900
C143        C  0.80349555  0.50305459  0.98226493    -0.18900
C144        C  0.80519774  0.48525158  0.00604279    -0.18900
C145        C  0.91390624  0.59232987  0.44517780    -0.20000
C146        C  0.87212695  0.58530137  0.43970487    -0.20000
C147        C  0.87995987  0.54500304  0.10504098    -0.20000
C148        C  0.84957258  0.52222105  0.09615336    -0.20000
C149        C  0.96138153  0.57747795  0.48270814    -0.15300
C150        C  0.93983107  0.57438591  0.08268012    -0.15300
C151        C  0.82988428  0.50022326  0.05152343    -0.15300
C152        C  0.81758107  0.54921402  0.46192535    -0.15300
H153        H  0.03572535  0.56378303  0.51384804     0.17600
H154        H  0.02645745  0.59208594  0.07313145     0.17600
H155        H  0.79087728  0.49335789  0.96371205     0.17600
H156        H  0.79307972  0.45933761  0.00960545     0.17600
H157        H  0.93575912  0.60619786  0.43250772     0.15900
H158        H  0.85549701  0.59207453  0.42163334     0.15900
H159        H  0.88887758  0.54903467  0.12555756     0.15900
H160        H  0.82980247  0.50581365  0.10839934     0.15900
H161        H  0.90966646  0.58957101  0.03128152     0.29100
H162        H  0.84585817  0.56026327  0.02094574     0.29100
O163        O  0.18407316  0.90132893  0.45625545    -0.54800
C164        C  0.17230607  0.76961719  0.45684662     0.77800
O165        O  0.08484122  0.84540232  0.44405256    -0.56000
C166        C  0.17351253  0.89822351  0.48029174     0.77800
C167        C  0.23593892  0.84646937  0.40800757     0.80100
Cd168      Cd  0.16378074  0.84238785  0.44243829     1.37500
O169        O  0.18456674  0.79342542  0.47237229    -0.54800
O170        O  0.23948832  0.85098178  0.43273169    -0.53700
C171        C  0.08021469  0.86140770  0.42230699     0.80100
O172        O  0.19930517  0.84030338  0.39907416    -0.56000
O173        O  0.15468252  0.77920275  0.43556001    -0.54500
O174        O  0.15937031  0.86888340  0.48749677    -0.54500
O175        O  0.11353071  0.86736198  0.40922555    -0.53600
O176        O  0.19002432  0.64895334  0.48908390    -0.54800
C177        C  0.18083541  0.55195032  0.52184689     0.77800
O178        O  0.09872028  0.61000470  0.47851452    -0.56000
C179        C  0.18141805  0.66467908  0.46766203     0.77800
C180        C  0.23073323  0.56074909  0.43490336     0.80100
Cd181      Cd  0.17136286  0.59024954  0.47201741     1.37500
O182        O  0.16625633  0.53802186  0.50108426    -0.54800
O183        O  0.19135634  0.55673993  0.43200414    -0.53700
C184        C  0.08149786  0.58806519  0.46336687     0.80100
O185        O  0.24280382  0.57883501  0.45444596    -0.56000
O186        O  0.19244743  0.58332144  0.51981626    -0.54500
O187        O  0.17080959  0.64608786  0.44805528    -0.54500
O188        O  0.10558451  0.56678797  0.45153184    -0.53600
N189        N  0.43750153  0.82872861  0.28063952    -0.33600
N190        N  0.37442211  0.87262454  0.25737045    -0.54200
N191        N  0.32999667  0.87865562  0.30732741    -0.33600
N192        N  0.39443451  0.83754624  0.33160246    -0.54200
C193        C  0.45449886  0.83437177  0.25638097     0.29900
C194        C  0.47008984  0.82368267  0.29771699     0.29900
C195        C  0.31736599  0.90875317  0.29578511     0.29900
C196        C  0.31816797  0.87999321  0.33299342     0.29900
C197        C  0.39208571  0.86128726  0.23460032     0.38600
C198        C  0.34375206  0.89541449  0.25059802     0.38600
C199        C  0.42825571  0.81861536  0.33922444     0.38600
C200        C  0.36509602  0.83420953  0.35085566     0.38600
C201        C  0.49814101  0.83071881  0.25779065    -0.18900
C202        C  0.50799859  0.82433303  0.28381383    -0.18900
C203        C  0.29612785  0.92908083  0.31429522    -0.18900
C204        C  0.29588836  0.91051836  0.33774475    -0.18900
C205        C  0.37124310  0.87598306  0.21305240    -0.20000
C206        C  0.34110923  0.89815433  0.22323878    -0.20000
C207        C  0.42081640  0.80325843  0.36362168    -0.20000
C208        C  0.38019955  0.81254496  0.37077863    -0.20000
C209        C  0.43218467  0.84516925  0.23344309    -0.15300
C210        C  0.46675475  0.81796114  0.32539138    -0.15300
C211        C  0.32784645  0.85446047  0.35211386    -0.15300
C212        C  0.32315248  0.91747307  0.26880780    -0.15300
H213        H  0.52088662  0.83381102  0.24201361     0.17600
H214        H  0.53969014  0.82085687  0.29151681     0.17600
H215        H  0.28177339  0.95437861  0.31113311     0.17600
H216        H  0.28232589  0.91905277  0.35637367     0.17600
H217        H  0.37925924  0.87325780  0.19227279     0.15900
H218        H  0.32076145  0.91534405  0.21190837     0.15900
H219        H  0.44246799  0.78727632  0.37502709     0.15900
H220        H  0.36458768  0.80582321  0.38917528     0.15900
H221        H  0.40539910  0.82701030  0.28492016     0.29100
H222        H  0.34309262  0.85695086  0.29809259     0.29100
N223        N  0.52522028  0.94872286  0.17207185    -0.33600
N224        N  0.58752758  0.90257650  0.19363428    -0.54200
N225        N  0.65356550  0.95279593  0.18420606    -0.33600
N226        N  0.59086743  0.00120447  0.16561144    -0.54200
C227        C  0.50067717  0.92269508  0.18146985     0.29900
C228        C  0.50172202  0.97826332  0.17288185     0.29900
C229        C  0.67178857  0.93441496  0.20412376     0.29900
C230        C  0.67734265  0.98134817  0.17994401     0.29900
C231        C  0.55660359  0.87893613  0.19006952     0.38600
C232        C  0.62092643  0.88539560  0.20398379     0.38600
C233        C  0.55679723  0.01955118  0.15734055     0.38600
C234        C  0.62525658  0.01694423  0.15525382     0.38600
C235        C  0.46070217  0.93553223  0.18731622    -0.18900
C236        C  0.46142012  0.97051435  0.18214336    -0.18900
C237        C  0.70821384  0.95142973  0.21235967    -0.18900
C238        C  0.71222543  0.98076121  0.19661030    -0.18900
C239        C  0.57091766  0.84613962  0.19748220    -0.20000
C240        C  0.61146697  0.85039030  0.20684710    -0.20000
C241        C  0.56943731  0.04769714  0.14217479    -0.20000
C242        C  0.61290642  0.04564440  0.14036294    -0.20000
C243        C  0.51387195  0.88802186  0.18603486    -0.15300
C244        C  0.51477781  0.01164519  0.16432315    -0.15300
C245        C  0.66747774  0.00778401  0.16148812    -0.15300
C246        C  0.65749649  0.90186017  0.21376690    -0.15300
H247        H  0.43405152  0.92152238  0.19532882     0.17600
H248        H  0.43498800  0.98805095  0.18502541     0.17600
H249        H  0.73009871  0.94316809  0.22766340     0.17600
H250        H  0.73708542  0.00001780  0.19786720     0.17600
H251        H  0.55300609  0.82216122  0.19785927     0.15900
H252        H  0.63135945  0.83027675  0.21535055     0.15900
H253        H  0.54940049  0.06730308  0.13313635     0.15900
H254        H  0.63315326  0.06396185  0.13017543     0.15900
H255        H  0.55520522  0.94577245  0.16386941     0.29100
H256        H  0.62836813  0.94525596  0.17228911     0.29100
O257        O  0.30426267  0.26401415  0.24867327    -0.54800
C258        C  0.30961472  0.35174820  0.27892501     0.77800
O259        O  0.38760193  0.30121613  0.20740894    -0.56000
C260        C  0.31412642  0.24606569  0.22849970     0.77800
C261        C  0.25869850  0.34745610  0.18932941     0.80100
Cd262      Cd  0.31940768  0.32037990  0.22690536     1.37500
O263        O  0.30414182  0.31945993  0.27544657    -0.54800
O264        O  0.24838066  0.32536641  0.20666127    -0.53700
C265        C  0.40833745  0.32696536  0.21573398     0.80100
O266        O  0.29673672  0.35725844  0.18921842    -0.56000
O267        O  0.31759624  0.36967488  0.25853045    -0.54500
O268        O  0.32519646  0.26233993  0.20786070    -0.54500
O269        O  0.38804492  0.35026258  0.22804118    -0.53600
O270        O  0.31991205  0.13419693  0.19303347    -0.54800
C271        C  0.31660442  0.01186907  0.23386076     0.77800
O272        O  0.29148018  0.07112188  0.15441020    -0.56000
C273        C  0.31759851  0.14193955  0.21729547     0.77800
C274        C  0.40834681  0.06272650  0.17782918     0.80100
Cd275      Cd  0.32416206  0.07105753  0.19878481     1.37500
O276        O  0.29124855  0.03731056  0.23565718    -0.54800
O277        O  0.40212352  0.07596572  0.20051321    -0.53700
C278        C  0.25607135  0.05958816  0.16188228     0.80100
O279        O  0.37598384  0.05432473  0.16452754    -0.56000
O280        O  0.34612760  0.01448940  0.21710577    -0.54500
O281        O  0.31823571  0.11700995  0.23366681    -0.54500
O282        O  0.25167350  0.05349317  0.18631136    -0.53600
N283        N  0.46831815  0.45341579  0.38644641    -0.33600
N284        N  0.39989148  0.50380876  0.39275704    -0.54200
N285        N  0.33975379  0.45249547  0.37499722    -0.33600
N286        N  0.40829322  0.40347769  0.36709731    -0.54200
C287        C  0.48961807  0.48392420  0.38522196     0.29900
C288        C  0.49398807  0.42864675  0.37604368     0.29900
C289        C  0.31417582  0.48040602  0.37823173     0.29900
C290        C  0.32142388  0.43129111  0.35685793     0.29900
C291        C  0.43268643  0.52331108  0.40125917     0.38600
C292        C  0.36434830  0.51965445  0.40148626     0.38600
C293        C  0.44160761  0.38169862  0.36959422     0.38600
C294        C  0.37601413  0.38448659  0.35737178     0.38600
C295        C  0.52938895  0.47821866  0.37430150    -0.18900
C296        C  0.53218102  0.44344009  0.36865963    -0.18900
C297        C  0.27810871  0.47639417  0.36288325    -0.18900
C298        C  0.28307890  0.44566526  0.34894575    -0.18900
C299        C  0.41810838  0.55215369  0.41502669    -0.20000
C300        C  0.37468423  0.54958900  0.41552464    -0.20000
C301        C  0.42998989  0.34821057  0.36230026    -0.20000
C302        C  0.38858703  0.35013397  0.35405732    -0.20000
C303        C  0.47519901  0.51641584  0.39491418    -0.15300
C304        C  0.48361155  0.39322107  0.37235614    -0.15300
C305        C  0.33765796  0.39882001  0.34811967    -0.15300
C306        C  0.32288253  0.50920389  0.39476158    -0.15300
H307        H  0.55402099  0.49704530  0.37052742     0.17600
H308        H  0.55899406  0.43082203  0.35944453     0.17600
H309        H  0.25163554  0.49424217  0.36131604     0.17600
H310        H  0.26066584  0.43483497  0.33496764     0.17600
H311        H  0.43678981  0.57284563  0.42367221     0.15900
H312        H  0.35317976  0.56829264  0.42433863     0.15900
H313        H  0.45012152  0.32539556  0.36111364     0.15900
H314        H  0.37025335  0.32899684  0.34575100     0.15900
H315        H  0.43945307  0.44908200  0.39579426     0.29100
H316        H  0.36649234  0.44734982  0.38632336     0.29100
N317        N  0.56255464  0.34488571  0.27641108    -0.33600
N318        N  0.62867035  0.38406135  0.30354965    -0.54200
N319        N  0.66279350  0.40384768  0.25268248    -0.33600
N320        N  0.60023778  0.36211481  0.22565927    -0.54200
C321        C  0.54679507  0.34603429  0.30141405     0.29900
C322        C  0.52929946  0.33920910  0.25985058     0.29900
C323        C  0.68782135  0.42336800  0.26837719     0.29900
C324        C  0.68165453  0.40159548  0.22873023     0.29900
C325        C  0.60869595  0.37201125  0.32530490     0.38600
C326        C  0.65699179  0.40783810  0.31206860     0.38600
C327        C  0.56550199  0.34630267  0.21620205     0.38600
C328        C  0.62613111  0.36724323  0.20490829     0.38600
C329        C  0.50372191  0.33909942  0.30070173    -0.18900
C330        C  0.49273060  0.33501078  0.27471170    -0.18900
C331        C  0.72232801  0.43513048  0.25410801    -0.18900
C332        C  0.71898409  0.42068031  0.22915257    -0.18900
C333        C  0.62676984  0.38634687  0.34794657    -0.20000
C334        C  0.65676456  0.40955466  0.33951480    -0.20000
C335        C  0.56878983  0.34166374  0.18901012    -0.20000
C336        C  0.60773956  0.35444525  0.18187620    -0.20000
C337        C  0.56884018  0.35550147  0.32485914    -0.15300
C338        C  0.53014595  0.33800164  0.23171161    -0.15300
C339        C  0.66611017  0.38310888  0.20650463    -0.15300
C340        C  0.68093361  0.42976914  0.29545484    -0.15300
H341        H  0.48180335  0.33825177  0.31710418     0.17600
H342        H  0.46093726  0.33016027  0.26771513     0.17600
H343        H  0.74806120  0.45111945  0.26129716     0.17600
H344        H  0.74124595  0.42417657  0.21306714     0.17600
H345        H  0.61680630  0.38281670  0.36831476     0.15900
H346        H  0.67539190  0.42648658  0.35208573     0.15900
H347        H  0.54568702  0.33018153  0.17579820     0.15900
H348        H  0.62061189  0.35501628  0.16198187     0.15900
H349        H  0.59432108  0.34636378  0.27128232     0.29100
H350        H  0.63333730  0.39451267  0.25789165     0.29100
O351        O  0.67585988  0.51637387  0.35746360    -0.54800
C352        C  0.67973864  0.64911005  0.35380645     0.77800
O353        O  0.58856813  0.57885522  0.36221520    -0.56000
C354        C  0.68616683  0.52012870  0.33348795     0.77800
C355        C  0.73064699  0.56679182  0.40474778     0.80100
Cd356      Cd  0.66617773  0.57784107  0.36750208     1.37500
O357        O  0.65892515  0.62934257  0.33857656    -0.54800
O358        O  0.73884008  0.56767803  0.38020276    -0.53700
C359        C  0.58050323  0.56939133  0.38567624     0.80100
O360        O  0.69285967  0.57205422  0.41208287    -0.56000
O361        O  0.69383886  0.63612931  0.37501583    -0.54500
O362        O  0.68634231  0.55082335  0.32436784    -0.54500
O363        O  0.61158406  0.56518270  0.40109091    -0.53600
O364        O  0.68116950  0.76634791  0.31888505    -0.54800
C365        C  0.68490263  0.85787568  0.28427450     0.77800
O366        O  0.60701107  0.84699502  0.35309158    -0.56000
C367        C  0.69057837  0.75263662  0.34092045     0.77800
C368        C  0.73220714  0.86071922  0.37301597     0.80100
Cd369      Cd  0.67676259  0.82561347  0.33614110     1.37500
O370        O  0.65835534  0.86799824  0.30132877    -0.54800
O371        O  0.74625266  0.84086030  0.35502107    -0.53700
C372        C  0.58751220  0.81961668  0.34630009     0.80100
O373        O  0.69246248  0.86436923  0.37440077    -0.56000
O374        O  0.70942779  0.83338965  0.29112258    -0.54500
O375        O  0.69712320  0.77280070  0.36035973    -0.54500
O376        O  0.60920565  0.79536140  0.33638128    -0.53600
C377        C  0.68668484  0.68495487  0.34771243    -0.10300
C378        C  0.69088937  0.71568585  0.34410471    -0.11900
C379        C  0.69487559  0.46250776  0.30638410    -0.10300
C380        C  0.69526741  0.49027783  0.31745196    -0.11900
C381        C  0.53840625  0.56027906  0.39356986    -0.10300
C382        C  0.50618232  0.54404873  0.39655112    -0.11900
C383        C  0.51697300  0.37043827  0.36315223    -0.10300
C384        C  0.54345859  0.35852281  0.34860977    -0.11900
C385        C  0.45336259  0.32860941  0.21342024    -0.10300
C386        C  0.49042709  0.33139140  0.21840238    -0.11900
C387        C  0.30974745  0.36721204  0.30497714    -0.10300
C388        C  0.31768603  0.38122046  0.32588434    -0.11900
C389        C  0.31335313  0.20874136  0.22866984    -0.10300
C390        C  0.31465487  0.17765931  0.22542725    -0.11900
C391        C  0.48278118  0.03884338  0.16423006    -0.10300
C392        C  0.45022255  0.05433401  0.16865751    -0.11900
C393        C  0.68535314  0.87290455  0.25806603    -0.10300
C394        C  0.67756402  0.88610546  0.23681068    -0.11900
C395        C  0.50577887  0.81515050  0.34031880    -0.10300
C396        C  0.54232756  0.81687072  0.34704077    -0.11900
C397        C  0.31191126  0.98072235  0.24941324    -0.10300
C398        C  0.31283483  0.95229795  0.25966345    -0.11900
C399        C  0.45680920  0.85050209  0.20966443    -0.10300
C400        C  0.48215490  0.86379364  0.19509166    -0.11900
C401        C  0.28777650  0.52913898  0.40528502    -0.10300
C402        C  0.26062807  0.54445456  0.41742090    -0.11900
C403        C  0.27177121  0.84857061  0.39068912    -0.10300
C404        C  0.29945900  0.85092700  0.37438606    -0.11900
C405        C  0.17836737  0.73322389  0.46273609    -0.10300
C406        C  0.18175686  0.70210279  0.46576383    -0.11900
C407        C  0.78867847  0.55398457  0.44036404    -0.10300
C408        C  0.76284480  0.55974820  0.42358214    -0.11900
C409        C  0.99963928  0.58342007  0.46769081    -0.10300
C410        C  0.03635320  0.58610431  0.46170188    -0.11900
C411        C  0.22826842  0.36159026  0.17116314    -0.10300
C412        C  0.20144679  0.37564938  0.15793269    -0.11900
C413        C  0.18163418  0.53342621  0.54684367    -0.10300
C414        C  0.17480419  0.51849138  0.56760263    -0.11900
C415        C  0.99301568  0.55108253  0.11763057    -0.10300
C416        C  0.96691248  0.56684882  0.10504725    -0.11900
C417        C  0.70165296  0.02675418  0.14891213    -0.10300
C418        C  0.72815308  0.04144677  0.13578306    -0.11900
C419        C  0.98198021  0.37640348  0.15003347    -0.10300
C420        C  0.94934544  0.36092389  0.14641406    -0.11900
C421        C  0.81439893  0.43803079  0.07195560    -0.10300
C422        C  0.81783290  0.46643861  0.06190548    -0.11900
C423        C  0.69446937  0.37749079  0.18469658    -0.10300
C424        C  0.72036482  0.36927111  0.16851998    -0.11900
C425        C  0.80984994  0.23494694  0.09581230    -0.10300
C426        C  0.80756686  0.20387504  0.09227086    -0.11900
C427        C  0.78669529  0.89530567  0.40276084    -0.10300
C428        C  0.76049694  0.87901310  0.39050495    -0.11900
C429        C  0.00737655  0.89095857  0.40936535    -0.10300
C430        C  0.03940158  0.87443659  0.41377923    -0.11900
C431        C  0.81727560  0.04664787  0.00469419    -0.10300
C432        C  0.82720011  0.03447525  0.98342566    -0.11900
C433        C  0.19621785  0.04974046  0.12630290    -0.10300
C434        C  0.22248162  0.05370048  0.14334735    -0.11900
C435        C  0.95251320  0.08774498  0.09550747    -0.10300
C436        C  0.98953951  0.08612738  0.08996367    -0.11900
C437        C  0.17534090  0.92757046  0.49799726    -0.10300
C438        C  0.17165195  0.95452677  0.51015903    -0.11900
C439        C  0.02325655  0.05571381  0.94212283    -0.10300
C440        C  0.04770587  0.06607244  0.95863975    -0.11900
N441        N  0.04698720  0.07787525  0.53754042    -0.33600
N442        N  0.10720871  0.03335042  0.51233225    -0.54200
N443        N  0.15100073  0.02268704  0.56199435    -0.33600
N444        N  0.08790572  0.06350950  0.58826079    -0.54200
C445        C  0.03033625  0.07496497  0.51289919     0.29900
C446        C  0.01427944  0.08272147  0.55449841     0.29900
C447        C  0.16391291  0.99373396  0.54896768     0.29900
C448        C  0.16347405  0.01960731  0.58745183     0.29900
C449        C  0.09176164  0.04860468  0.49024514     0.38600
C450        C  0.13789042  0.01118345  0.50448062     0.38600
C451        C  0.05534450  0.08349554  0.59654194     0.38600
C452        C  0.11763852  0.06473298  0.60746228     0.35400
C453        C  0.98682982  0.07929147  0.51406102    -0.18900
C454        C  0.97663984  0.08386006  0.54023545    -0.18900
C455        C  0.18568811  0.97217952  0.56642206    -0.18900
C456        C  0.18618325  0.98895859  0.59069041    -0.18900
C457        C  0.13420268  0.04218710  0.96241382    -0.20000
C458        C  0.16513069  0.02007477  0.97178493    -0.20000
C459        C  0.06377778  0.09700306  0.62146491    -0.20000
C460        C  0.10383285  0.08567119  0.62819654    -0.20000
C461        C  0.05314195  0.06703426  0.48957724    -0.15300
C462        C  0.01748706  0.08783570  0.58224671    -0.15300
C463        C  0.15465866  0.04408910  0.60752621    -0.15300
C464        C  0.15870067  0.98761269  0.52149682    -0.15300
H465        H  0.96441503  0.07805520  0.49792841     0.17600
H466        H  0.94488946  0.08752018  0.54771183     0.17600
H467        H  0.20054603  0.94741126  0.56198583     0.17600
H468        H  0.20049559  0.97930854  0.60878386     0.17600
H469        H  0.12692469  0.04688669  0.94173177     0.15900
H470        H  0.18674678  0.00477277  0.95983494     0.15900
H471        H  0.04336220  0.11344272  0.63336466     0.15900
H472        H  0.12009050  0.09095164  0.64667102     0.15900
H473        H  0.07907995  0.07897040  0.54205899     0.29100
H474        H  0.13788241  0.04508229  0.55382737     0.29100
N475        N  0.96142015  0.98027419  0.41756399    -0.33600
N476        N  0.89888274  0.02481675  0.44293714    -0.54200
N477        N  0.83403276  0.97242494  0.43536176    -0.33600
N478        N  0.91398625  0.91980835  0.91076344    -0.54200
C479        C  0.98636432  0.00728376  0.42470396     0.29900
C480        C  0.00394777  0.94430366  0.91326275     0.29900
C481        C  0.81547902  0.99118601  0.45495866     0.29900
C482        C  0.81032274  0.94379204  0.43112108     0.29900
C483        C  0.93035122  0.04834495  0.44106709     0.38600
C484        C  0.86666580  0.04052918  0.45587465     0.38600
C485        C  0.94775423  0.90060609  0.90326658     0.38600
C486        C  0.87926143  0.90172195  0.90357468     0.38600
C487        C  0.02839663  0.99694687  0.42337757    -0.18900
C488        C  0.04568762  0.95314259  0.91854675    -0.18900
C489        C  0.77857668  0.97457322  0.46274104    -0.18900
C490        C  0.77485490  0.94500215  0.44725670    -0.18900
C491        C  0.91734560  0.07980545  0.45198665    -0.20000
C492        C  0.87724593  0.07470552  0.46169891    -0.20000
C493        C  0.93461614  0.86968832  0.89180313    -0.20000
C494        C  0.89110282  0.87070883  0.89146013    -0.20000
C495        C  0.97278025  0.03984798  0.43496480    -0.15300
C496        C  0.99015662  0.90989296  0.90789135    -0.15300
C497        C  0.83731256  0.91117247  0.91011521    -0.15300
C498        C  0.83035097  0.02323026  0.46539946    -0.15300
H499        H  0.05607791  0.01237549  0.42745801     0.17600
H500        H  0.07309566  0.93618249  0.91886475     0.17600
H501        H  0.75637320  0.98308149  0.47776690     0.17600
H502        H  0.74987172  0.92585747  0.44850641     0.17600
H503        H  0.93594610  0.10323514  0.45434717     0.15900
H504        H  0.85858868  0.09358820  0.47259400     0.15900
H505        H  0.95435156  0.84878755  0.88431579     0.15900
H506        H  0.87058495  0.85026551  0.88423690     0.15900
H507        H  0.92896804  0.98123528  0.41494861     0.29100
H508        H  0.85972524  0.97957501  0.42386336     0.29100
O509        O  0.78042797  0.37814128  0.58395994    -0.54800
C510        C  0.79879240  0.27871795  0.60834225     0.77800
O511        O  0.89036663  0.34690423  0.61442469    -0.56000
C512        C  0.79704131  0.40743786  0.58850581     0.77800
C513        C  0.75045302  0.36691420  0.66225842     0.80100
Cd514      Cd  0.81306986  0.34977499  0.62349067     1.37500
O515        O  0.79478187  0.28882698  0.63205368    -0.54800
O516        O  0.78918923  0.36505078  0.66841325    -0.53700
C517        C  0.90187381  0.35229696  0.63813076     0.80100
O518        O  0.74057353  0.36043227  0.63850062    -0.56000
O519        O  0.80940585  0.30126375  0.59135474    -0.54500
O520        O  0.82141905  0.40960621  0.60827980    -0.54500
O521        O  0.87282839  0.35519658  0.65522501    -0.53600
O522        O  0.79814920  0.15527708  0.61344331    -0.54800
C523        C  0.80154268  0.06665931  0.53642409     0.77800
O524        O  0.88000783  0.12107583  0.58134667    -0.56000
C525        C  0.79309313  0.17511871  0.59370032     0.77800
C526        C  0.74723515  0.06758417  0.62163196     0.80100
Cd527      Cd  0.80714123  0.10172322  0.58752537     1.37500
O528        O  0.78316167  0.09547056  0.54046848    -0.54800
O529        O  0.78657088  0.06558340  0.62585399    -0.53700
C530        C  0.89653150  0.10119763  0.59841803     0.80100
O531        O  0.73530127  0.08571772  0.60205735    -0.56000
O532        O  0.82085358  0.05339856  0.55593872    -0.54500
O533        O  0.79220673  0.16107312  0.57101461    -0.54500
O534        O  0.87189808  0.08148208  0.61119898    -0.53600
N535        N  0.02504856  0.46073286  0.63780765    -0.33600
N536        N  0.08914279  0.40649341  0.64284200    -0.54200
N537        N  0.15172221  0.45300916  0.62158238    -0.33600
N538        N  0.08699130  0.50480161  0.61336953    -0.54200
C539        C  0.00032750  0.43197169  0.63829642     0.29900
C540        C  0.00060069  0.48735430  0.62910259     0.29900
C541        C  0.17533597  0.42433982  0.62629320     0.29900
C542        C  0.16949092  0.47052649  0.60108434     0.29900
C543        C  0.05516386  0.38952299  0.65263744     0.38600
C544        C  0.12387161  0.39089739  0.65311574     0.38600
C545        C  0.05698918  0.52927442  0.61733570     0.38600
C546        C  0.11972762  0.52069971  0.60132960     0.38600
C547        C  0.95944752  0.44090578  0.63067105    -0.18900
C548        C  0.95955930  0.47573622  0.62515756    -0.18900
C549        C  0.20973285  0.42393800  0.60925113    -0.18900
C550        C  0.20550992  0.45275096  0.59287204    -0.18900
C551        C  0.06813621  0.36230977  0.66872118    -0.20000
C552        C  0.11177941  0.36362590  0.66951117    -0.20000
C553        C  0.08309486  0.56329680  0.11280149    -0.20000
C554        C  0.12321522  0.55706164  0.10333622    -0.20000
C555        C  0.01285472  0.39829700  0.64665609    -0.15300
C556        C  0.01455184  0.52142763  0.62331769    -0.15300
C557        C  0.15529033  0.50309026  0.59101561    -0.15300
C558        C  0.16598605  0.39897459  0.64574916    -0.15300
H559        H  0.93201191  0.42430826  0.62912726     0.17600
H560        H  0.93256298  0.49040562  0.61817217     0.17600
H561        H  0.23450500  0.40444373  0.60825309     0.17600
H562        H  0.22709668  0.46025666  0.57723976     0.17600
H563        H  0.04822929  0.34400445  0.67918365     0.15900
H564        H  0.13224726  0.34580907  0.68016707     0.15900
H565        H  0.06717618  0.58828736  0.11315535     0.15900
H566        H  0.14457798  0.57628560  0.09522214     0.15900
H567        H  0.05595064  0.46288801  0.64467780     0.29100
H568        H  0.12712731  0.46127262  0.63370160     0.29100
N569        N  0.93436722  0.56940591  0.52811323    -0.33600
N570        N  0.89751574  0.57840761  0.98554284    -0.54200
N571        N  0.81907390  0.52949911  0.50782333    -0.33600
N572        N  0.86741044  0.53515484  0.55597415    -0.54200
C573        C  0.97354467  0.59632843  0.01770341     0.29900
C574        C  0.95244849  0.56320337  0.55195744     0.29900
C575        C  0.80565496  0.52676169  0.48257013     0.29900
C576        C  0.80205013  0.50270800  0.52150103     0.29900
C577        C  0.93101354  0.59607728  0.97616756     0.38600
C578        C  0.86745946  0.57996038  0.96662356     0.38600
C579        C  0.88893580  0.54639555  0.57739579     0.38600
C580        C  0.83415058  0.51685920  0.56505885     0.38600
C581        C  0.01165310  0.59883416  0.03129046    -0.18900
C582        C  0.99600370  0.56062261  0.54903890    -0.18900
C583        C  0.77821860  0.49883957  0.48015115    -0.18900
C584        C  0.77658707  0.48314598  0.50473728    -0.18900
C585        C  0.92280440  0.60835606  0.95084091    -0.20000
C586        C  0.88182645  0.59888571  0.94501396    -0.20000
C587        C  0.86849008  0.53598266  0.60041497    -0.20000
C588        C  0.83413371  0.51665391  0.59256051    -0.20000
C589        C  0.96947712  0.59932449  0.98979661    -0.15300
C590        C  0.93068617  0.55895223  0.57617795    -0.15300
C591        C  0.80787652  0.49639928  0.54882080    -0.15300
C592        C  0.83000414  0.56041667  0.96733313    -0.15300
H593        H  0.04274474  0.60386479  0.02328809     0.17600
H594        H  0.01934992  0.55533324  0.56416216     0.17600
H595        H  0.76215444  0.49013820  0.46237448     0.17600
H596        H  0.75826410  0.46032279  0.50978725     0.17600
H597        H  0.94402528  0.62272856  0.93807384     0.15900
H598        H  0.86550585  0.60349242  0.92644496     0.15900
H599        H  0.87899532  0.53965033  0.62067112     0.15900
H600        H  0.81245944  0.50305001  0.60551975     0.15900
H601        H  0.90273253  0.57583543  0.52498796     0.29100
H602        H  0.83611808  0.55040903  0.51532235     0.29100
O603        O  0.18410843  0.87300039  0.99112059    -0.54800
C604        C  0.18600299  0.77124595  0.96743852     0.77800
O605        O  0.12439451  0.85270434  0.91221344    -0.56000
C606        C  0.18740949  0.90254100  0.98018867     0.77800
C607        C  0.24573650  0.85277404  0.91503802     0.80100
Cd608      Cd  0.17514098  0.84152022  0.94843697     1.37500
O609        O  0.17862748  0.79592111  0.98340548    -0.54800
O610        O  0.20970441  0.84566446  0.90560541    -0.53700
C611        C  0.09177831  0.85306266  0.92659595     0.80100
O612        O  0.25000627  0.85248456  0.93997256    -0.56000
O613        O  0.18787029  0.77881572  0.94309052    -0.54500
O614        O  0.18448527  0.90367203  0.95526701    -0.54500
O615        O  0.09675838  0.84556098  0.95083115    -0.53600
O616        O  0.18251689  0.65128553  0.95946204    -0.54800
C617        C  0.19112121  0.55235060  0.02717841     0.77800
O618        O  0.11219768  0.57796785  0.95673787    -0.56000
C619        C  0.19140721  0.66772239  0.98044067     0.77800
C620        C  0.23353657  0.56670984  0.93831623     0.80100
Cd621      Cd  0.17958548  0.59378847  0.97946428     1.37500
O622        O  0.16167006  0.54675316  0.01081234    -0.54800
O623        O  0.24660869  0.58855157  0.95515095    -0.53700
C624        C  0.09016306  0.59850580  0.97076914     0.80100
O625        O  0.19556381  0.55688896  0.94036888    -0.56000
O626        O  0.21685860  0.57628099  0.02136324    -0.54500
O627        O  0.19703228  0.64999889  0.00134226    -0.54500
O628        O  0.10924583  0.61607832  0.98819785    -0.53600
N629        N  0.44081793  0.84737200  0.78881993    -0.33600
N630        N  0.36959525  0.87819924  0.76284696    -0.54200
N631        N  0.32937372  0.89005488  0.81312986    -0.33600
N632        N  0.40178469  0.86067148  0.83970848    -0.54200
C633        C  0.45531204  0.85235383  0.76388957     0.29900
C634        C  0.47479237  0.84921109  0.80516328     0.29900
C635        C  0.31142587  0.91613191  0.79898890     0.29900
C636        C  0.32010002  0.89567558  0.83883785     0.29900
C637        C  0.38805516  0.86487201  0.74100358     0.38600
C638        C  0.33533383  0.89617653  0.75472526     0.38600
C639        C  0.43722261  0.84420731  0.84778670     0.38600
C640        C  0.37365556  0.85768914  0.85960603     0.38600
C641        C  0.49877525  0.85723014  0.76448384    -0.18900
C642        C  0.51104875  0.85531429  0.79043663    -0.18900
C643        C  0.28970026  0.93827776  0.81604843    -0.18900
C644        C  0.29442458  0.92480803  0.84128386    -0.18900
C645        C  0.36424566  0.87317986  0.71871698    -0.20000
C646        C  0.33116094  0.89365199  0.72740911    -0.20000
C647        C  0.43220647  0.83127751  0.87321506    -0.20000
C648        C  0.39136319  0.83934290  0.88060578    -0.20000
C649        C  0.43035406  0.85332366  0.74065997    -0.15300
C650        C  0.47441531  0.84311574  0.83273133    -0.15300
C651        C  0.33411782  0.87451900  0.85980598    -0.15300
C652        C  0.31315001  0.91958492  0.77112532    -0.15300
H653        H  0.51957326  0.86281314  0.74812846     0.17600
H654        H  0.54313914  0.85832635  0.79753166     0.17600
H655        H  0.27169691  0.96130629  0.81080340     0.17600
H656        H  0.28164723  0.93572215  0.85940644     0.17600
H657        H  0.37200202  0.86778873  0.69820255     0.15900
H658        H  0.30797642  0.90661574  0.71501122     0.15900
H659        H  0.45544667  0.81753408  0.88506836     0.15900
H660        H  0.37697783  0.83364511  0.89959179     0.15900
H661        H  0.41019871  0.83997954  0.79394465     0.29100
H662        H  0.34440882  0.86784767  0.80594247     0.29100
N663        N  0.51921760  0.94519596  0.67089371    -0.33600
N664        N  0.58398688  0.90198655  0.69472524    -0.54200
N665        N  0.64801038  0.95389121  0.68300637    -0.33600
N666        N  0.58251712  0.99904204  0.66226209    -0.54200
C667        C  0.49521125  0.91890990  0.68040337     0.29900
C668        C  0.49375467  0.97356119  0.66885719     0.29900
C669        C  0.66836788  0.93621124  0.70249185     0.29900
C670        C  0.67070209  0.98282688  0.67775582     0.29900
C671        C  0.55270921  0.87810994  0.69433061     0.38600
C672        C  0.61750736  0.88689460  0.70679875     0.38600
C673        C  0.54771726  0.01663560  0.65420496     0.38600
C674        C  0.61627655  0.01672713  0.65301136     0.38600
C675        C  0.45358295  0.93014438  0.68283987    -0.18900
C676        C  0.45274387  0.96451234  0.67583568    -0.18900
C677        C  0.70523409  0.95376272  0.70912761    -0.18900
C678        C  0.70707591  0.98289873  0.69314832    -0.18900
C679        C  0.56689287  0.84723361  0.70564286    -0.20000
C680        C  0.60764738  0.85300856  0.71396021    -0.20000
C681        C  0.55923876  0.04598163  0.64005714    -0.20000
C682        C  0.60274347  0.04569664  0.63881679    -0.20000
C683        C  0.50985736  0.88580069  0.68870725    -0.15300
C684        C  0.50589120  0.00736346  0.66066925    -0.15300
C685        C  0.65878166  0.00946166  0.65988438    -0.15300
C686        C  0.65510848  0.90435787  0.71393529    -0.15300
H687        H  0.42662189  0.91559159  0.68988558     0.17600
H688        H  0.42482985  0.98087876  0.67609964     0.17600
H689        H  0.72852997  0.94625834  0.72382771     0.17600
H690        H  0.73152587  0.00257248  0.69354183     0.17600
H691        H  0.54879344  0.82380703  0.70920674     0.15900
H692        H  0.62740637  0.83464752  0.72461338     0.15900
H693        H  0.53844803  0.06541613  0.63148181     0.15900
H694        H  0.62216872  0.06545804  0.62961317     0.15900
H695        H  0.55058465  0.94319033  0.66504495     0.29100
H696        H  0.62179190  0.94578037  0.67229918     0.29100
O697        O  0.29963757  0.26265610  0.75003424    -0.54800
C698        C  0.31141710  0.36203468  0.77640632     0.77800
O699        O  0.38201551  0.33597158  0.70480233    -0.56000
C700        C  0.30275376  0.24505492  0.72889406     0.77800
C701        C  0.25688903  0.35074705  0.69053421     0.80100
Cd702      Cd  0.31547081  0.31968867  0.72848499     1.37500
O703        O  0.33804719  0.36728524  0.75822504    -0.54800
O704        O  0.24422278  0.33408045  0.71062452    -0.53700
C705        C  0.40573868  0.31927613  0.72063357     0.80100
O706        O  0.29650443  0.35329253  0.68764945    -0.56000
O707        O  0.28478072  0.33805526  0.77239016    -0.54500
O708        O  0.30941567  0.26180830  0.70773898    -0.54500
O709        O  0.38782014  0.30169476  0.73852977    -0.53600
O710        O  0.32768177  0.11860199  0.73054652    -0.54800
C711        C  0.30291876  0.01004548  0.73186661     0.77800
O712        O  0.28011964  0.07325043  0.65524785    -0.56000
C713        C  0.30569897  0.14044225  0.71770974     0.77800
C714        C  0.40026068  0.06016831  0.67646882     0.80100
Cd715      Cd  0.31598123  0.06970830  0.69838937     1.37500
O716        O  0.29420748  0.04031818  0.74028515    -0.54800
O717        O  0.39435689  0.06574811  0.70090096    -0.53700
C718        C  0.24660142  0.05840901  0.66297345     0.80100
O719        O  0.36789908  0.06094525  0.66175478    -0.56000
O720        O  0.31814503  0.00767622  0.70879240    -0.54500
O721        O  0.28818899  0.12962286  0.69680404    -0.54500
O722        O  0.24481277  0.04915802  0.68700030    -0.53600
N723        N  0.46390045  0.45568068  0.89961584    -0.33600
N724        N  0.40063522  0.51090490  0.89945432    -0.54200
N725        N  0.34105046  0.46585236  0.87304257    -0.33600
N726        N  0.40477026  0.41277144  0.87032396    -0.54200
C727        C  0.48892377  0.48410752  0.90220128     0.29900
C728        C  0.48902611  0.42905019  0.89160644     0.29900
C729        C  0.31823052  0.49541407  0.87505097     0.29900
C730        C  0.32607100  0.44774167  0.85198229     0.29900
C731        C  0.43271357  0.52785491  0.91150329     0.38600
C732        C  0.36490873  0.52866159  0.90529022     0.38600
C733        C  0.43314272  0.38802306  0.87699853     0.38600
C734        C  0.37318654  0.39658372  0.85722798     0.38600
C735        C  0.53062644  0.47485167  0.89698713    -0.18900
C736        C  0.53068120  0.44020578  0.89046023    -0.18900
C737        C  0.28729912  0.49601403  0.85556149    -0.18900
C738        C  0.29285801  0.46615429  0.84055453    -0.18900
C739        C  0.41765718  0.55715956  0.92448798    -0.20000
C740        C  0.37440601  0.55726280  0.92106303    -0.20000
C741        C  0.41885919  0.35561996  0.86874777    -0.20000
C742        C  0.38117620  0.36115200  0.85578024    -0.20000
C743        C  0.47552395  0.51806742  0.90940124    -0.15300
C744        C  0.47523400  0.39543873  0.88406941    -0.15300
C745        C  0.33977407  0.41406386  0.84430889    -0.15300
C746        C  0.32467323  0.52119061  0.89451138    -0.15300
H747        H  0.55833278  0.49130463  0.89745615     0.17600
H748        H  0.55824033  0.42530830  0.88472322     0.17600
H749        H  0.26390183  0.51619266  0.85219993     0.17600
H750        H  0.27383886  0.45840576  0.82369728     0.17600
H751        H  0.43590381  0.57621015  0.93540096     0.15900
H752        H  0.35273440  0.57696150  0.92833098     0.15900
H753        H  0.43541231  0.33096162  0.87022839     0.15900
H754        H  0.36234974  0.34154675  0.84587974     0.15900
H755        H  0.43190019  0.45387241  0.90419697     0.29100
H756        H  0.36247755  0.45737595  0.88729095     0.29100
N757        N  0.55314966  0.34494350  0.78721175    -0.33600
N758        N  0.61584098  0.38544984  0.81510197    -0.54200
N759        N  0.66010667  0.39921361  0.76635052    -0.33600
N760        N  0.59529810  0.36198678  0.73751346    -0.54200
C761        C  0.53564853  0.34673066  0.81170593     0.29900
C762        C  0.52128914  0.33919538  0.76972251     0.29900
C763        C  0.67479354  0.42602900  0.78108443     0.29900
C764        C  0.67245074  0.40464921  0.74114679     0.29900
C765        C  0.59714174  0.37096145  0.83637613     0.38600
C766        C  0.64710794  0.40587459  0.82441560     0.38600
C767        C  0.56289572  0.34294243  0.72785406     0.38600
C768        C  0.62496358  0.36306775  0.71826594     0.38600
C769        C  0.49258971  0.34030349  0.80985928    -0.18900
C770        C  0.48349685  0.33574545  0.78349580    -0.18900
C771        C  0.69760050  0.44849962  0.76499167    -0.18900
C772        C  0.69686761  0.43451609  0.73976516    -0.18900
C773        C  0.61762659  0.38140473  0.85942109    -0.20000
C774        C  0.64890540  0.40402383  0.85183879    -0.20000
C775        C  0.57133626  0.33267411  0.70204452    -0.20000
C776        C  0.61112266  0.34489062  0.69611118    -0.20000
C777        C  0.55692097  0.35538241  0.83557164    -0.15300
C778        C  0.52525401  0.33600076  0.74179712    -0.15300
C779        C  0.66248713  0.38283503  0.71964060    -0.15300
C780        C  0.66960978  0.42973162  0.80875339    -0.15300
H781        H  0.46973198  0.33968777  0.82574634     0.17600
H782        H  0.45233450  0.33071597  0.77551196     0.17600
H783        H  0.71381707  0.47205220  0.77090951     0.17600
H784        H  0.71156843  0.44550844  0.72229137     0.17600
H785        H  0.60898558  0.37529477  0.87966769     0.15900
H786        H  0.66960846  0.41838941  0.86497793     0.15900
H787        H  0.55114780  0.31764318  0.68902820     0.15900
H788        H  0.62733650  0.34180777  0.67734061     0.15900
H789        H  0.58529980  0.34551678  0.78299940     0.29100
H790        H  0.64572858  0.37661304  0.77307143     0.29100
O791        O  0.69079762  0.52277612  0.87191930    -0.54800
C792        C  0.67803945  0.65105138  0.85635087     0.77800
O793        O  0.61233849  0.57497457  0.91461220    -0.56000
C794        C  0.67844046  0.52064353  0.84815804     0.77800
C795        C  0.73526356  0.57740016  0.91452746     0.80100
Cd796      Cd  0.66592100  0.58284679  0.87883488     1.37500
O797        O  0.69081198  0.62410351  0.84441436    -0.54800
O798        O  0.69791440  0.58109653  0.92314437    -0.53700
C799        C  0.58141353  0.57132281  0.89893890     0.80100
O800        O  0.74066679  0.57803371  0.88973092    -0.56000
O801        O  0.65831443  0.64658470  0.87784956    -0.54500
O802        O  0.65994314  0.54699473  0.83844457    -0.54500
O803        O  0.58896679  0.57462262  0.87444238    -0.53600
O804        O  0.68539005  0.77209079  0.85834215    -0.54800
C805        C  0.69113086  0.86164399  0.78316461     0.77800
O806        O  0.61238690  0.80958350  0.82880219    -0.56000
C807        C  0.69360521  0.75277562  0.83872939     0.77800
C808        C  0.74676170  0.85831969  0.86953012     0.80100
Cd809      Cd  0.68610345  0.82699837  0.83406625     1.37500
O810        O  0.67123757  0.87455221  0.80256782    -0.54800
O811        O  0.70779519  0.85774922  0.87492942    -0.53700
C812        C  0.59716803  0.83133300  0.84502514     0.80100
O813        O  0.75811772  0.84418644  0.84801293    -0.56000
O814        O  0.71065112  0.83334929  0.78725818    -0.54500
O815        O  0.70155343  0.76761632  0.81690910    -0.54500
O816        O  0.62282470  0.85172701  0.85636140    -0.53600
C817        C  0.68633255  0.68538442  0.84651654    -0.10300
C818        C  0.69188433  0.71563982  0.84128566    -0.11900
C819        C  0.68208066  0.46190551  0.82141234    -0.10300
C820        C  0.68364695  0.48915926  0.83321888    -0.11900
C821        C  0.54024986  0.56080910  0.90804035    -0.10300
C822        C  0.50801087  0.54460383  0.91149280    -0.11900
C823        C  0.50687355  0.37126735  0.87460428    -0.10300
C824        C  0.53159398  0.35852448  0.85928473    -0.11900
C825        C  0.45107259  0.32224291  0.72029912    -0.10300
C826        C  0.48730157  0.32705235  0.72700787    -0.11900
C827        C  0.31314623  0.38160164  0.80087110    -0.10300
C828        C  0.32136102  0.39717152  0.82114322    -0.11900
C829        C  0.30052551  0.20759029  0.72869661    -0.10300
C830        C  0.30194852  0.17639168  0.72555494    -0.11900
C831        C  0.47320411  0.03413615  0.66123791    -0.10300
C832        C  0.44122770  0.05014414  0.66643796    -0.11900
C833        C  0.68890723  0.87746629  0.75731561    -0.10300
C834        C  0.67836648  0.89020038  0.73639131    -0.11900
C835        C  0.51481951  0.83694031  0.84538202    -0.10300
C836        C  0.55235222  0.83382030  0.84885456    -0.11900
C837        C  0.29716100  0.97939572  0.74770866    -0.10300
C838        C  0.29920398  0.95186762  0.75914179    -0.11900
C839        C  0.45288692  0.85321814  0.71577811    -0.10300
C840        C  0.47827201  0.86280837  0.69963902    -0.11900
C841        C  0.28847209  0.53970402  0.90493545    -0.10300
C842        C  0.26134064  0.55282966  0.91846287    -0.11900
C843        C  0.27991997  0.86169453  0.89800764    -0.10300
C844        C  0.30613686  0.86914849  0.88181327    -0.11900
C845        C  0.19124414  0.73592723  0.97617847    -0.10300
C846        C  0.19340313  0.70502256  0.98018172    -0.11900
C847        C  0.79846712  0.56560161  0.94716598    -0.10300
C848        C  0.77000371  0.57154448  0.93203192    -0.11900
C849        C  0.00818458  0.60211245  0.97465634    -0.10300
C850        C  0.04505068  0.60076556  0.96868668    -0.11900
C851        C  0.22738496  0.36648141  0.67215968    -0.10300
C852        C  0.20060695  0.38044437  0.65858868    -0.11900
C853        C  0.19320601  0.53348638  0.05184987    -0.10300
C854        C  0.18597855  0.51877386  0.07255530    -0.11900
C855        C  0.98266684  0.54579655  0.61461803    -0.10300
C856        C  0.95620188  0.55712839  0.59984323    -0.11900
C857        C  0.69146434  0.03174840  0.64919112    -0.10300
C858        C  0.71744783  0.04904947  0.63773517    -0.11900
C859        C  0.97970531  0.37211213  0.64795219    -0.10300
C860        C  0.94565446  0.35829545  0.64487316    -0.11900
C861        C  0.78985488  0.43716130  0.57193767    -0.10300
C862        C  0.79232105  0.46438481  0.56020703    -0.11900
C863        C  0.69237900  0.38061089  0.69813056    -0.10300
C864        C  0.71887005  0.37547374  0.68146682    -0.11900
C865        C  0.79268425  0.24292568  0.60131551    -0.10300
C866        C  0.79055733  0.21212575  0.59700507    -0.11900
C867        C  0.80320409  0.89065183  0.89912154    -0.10300
C868        C  0.77670242  0.87505010  0.88670422    -0.11900
C869        C  0.02148362  0.88231456  0.91019713    -0.10300
C870        C  0.05179700  0.86489784  0.91638352    -0.11900
C871        C  0.80272402  0.05053944  0.51053531    -0.10300
C872        C  0.81073391  0.03769669  0.48914960    -0.11900
C873        C  0.18456697  0.04753330  0.62903204    -0.10300
C874        C  0.21213253  0.05217247  0.64515007    -0.11900
C875        C  0.94164424  0.09945898  0.60124878    -0.10300
C876        C  0.97872213  0.09591920  0.59628717    -0.11900
C877        C  0.19277113  0.93392185  0.99508934    -0.10300
C878        C  0.19189268  0.96217188  0.00541761    -0.11900
C879        C  0.00506186  0.06058285  0.44776195    -0.10300
C880        C  0.03016874  0.06827477  0.46474779    -0.11900
loop_ 
_geom_bond_atom_site_label_1 
_geom_bond_atom_site_label_2 
_geom_bond_distance 
_geom_bond_site_symmetry_2 
_ccdc_geom_bond_type 
N1            C6   1.355       .  A
N1            C5   1.354       .  A
N1           H33   1.041       .  S
N2            C9   1.347   1_554  A
N2           C10   1.346   1_554  A
N3            C8   1.347       .  A
N3            C7   1.351       .  A
N3           H34   1.041       .  S
N4           C11   1.346       .  A
N4           C12   1.349       .  A
C5           C13   1.387       .  A
C5           C21   1.415   1_554  A
C6           C22   1.416       .  A
C6           C14   1.388   1_455  A
C7           C15   1.389   1_545  A
C7           C24   1.409   1_545  A
C8           C23   1.403       .  A
C8           C16   1.384   1_545  A
C9           C21   1.408       .  A
C9          C457   1.388       .  A
C10          C24   1.406   1_546  A
C10         C458   1.386       .  A
C11          C19   1.385       .  A
C11          C22   1.403       .  A
C12          C20   1.386       .  A
C12          C23   1.407       .  A
C13          C14   1.369   1_455  A
C13          H25   1.078   1_454  S
C14          H26   1.082       .  S
C15          C16   1.379       .  A
C15          H27   1.082       .  S
C16          H28   1.082       .  S
C17          C18   1.376       .  A
C17         C449   1.387       .  A
C17          H29   1.081       .  S
C18         C450   1.385       .  A
C18          H30   1.082   1_545  S
C19          C20   1.378       .  A
C19          H31   1.082       .  S
C20          H32   1.082       .  S
C21         C440   1.447       .  S
C22         C436   1.447   1_455  S
C23         C433   1.443       .  S
C24         C878   1.443       .  S
N35          C39   1.355   1_655  A
N35         C480   1.357   1_655  A
N35          H67   1.037       .  S
N36          C43   1.349       .  A
N36          C44   1.350       .  A
N37          C42   1.349       .  A
N37          C41   1.354       .  A
N37          H68   1.036       .  S
N38          C45   1.353       .  A
N38          C46   1.352       .  A
C39          C47   1.388       .  A
C39          C55   1.418   1_465  A
C40         N475   1.356       .  A
C40          C56   1.418       .  A
C40          C48   1.387   1_655  A
C41          C49   1.389       .  A
C41          C58   1.417   1_565  A
C42          C50   1.386       .  A
C42         C497   1.411       .  A
C43          C55   1.413       .  A
C43          C51   1.389       .  A
C44          C58   1.412       .  A
C44          C52   1.385       .  A
C45          C53   1.384       .  A
C45          C56   1.413       .  A
C46          C54   1.389       .  A
C46          C57   1.417       .  A
C47         C488   1.369       .  A
C47          H59   1.080   1_565  S
C48         C487   1.367       .  A
C48          H60   1.082       .  S
C49          C50   1.381       .  A
C49          H61   1.082       .  S
C50          H62   1.082       .  S
C51          C52   1.374       .  A
C51          H63   1.083       .  S
C52          H64   1.082       .  S
C53          C54   1.378       .  A
C53          H65   1.082       .  S
C54          H66   1.082       .  S
C55         C439   1.447   1_655  S
C56         C429   1.460   1_655  S
C57         C482   1.414       .  A
C57         C427   1.451       .  S
C58         C432   1.455       .  S
O69          C72   1.262       .  A
O69         Cd74   2.440       .  S
C70         C425   1.440       .  S
C70          O79   1.266       .  A
C70          O75   1.261       .  A
O71          C77   1.264       .  A
O71         Cd74   2.466       .  S
C72         C421   1.438       .  S
C72          O80   1.268       .  A
C73         C424   1.420       .  S
C73          O78   1.262       .  A
C73          O76   1.262       .  A
Cd74         O81   2.449       .  S
Cd74         O80   2.502       .  S
Cd74         O79   2.503       .  S
Cd74         O75   2.456       .  S
Cd74         O78   2.422       .  S
Cd74         O76   2.441       .  S
C77         C420   1.434       .  S
C77          O81   1.266       .  A
O82          C85   1.264       .  A
O82         Cd87   2.474       .  S
C83         C431   1.442       .  S
C83          O92   1.264       .  A
C83          O88   1.262       .  A
O84          C90   1.266       .  A
O84         Cd87   2.494       .  S
C85         C426   1.439       .  S
C85          O93   1.265       .  A
C86         C418   1.441       .  S
C86          O91   1.263       .  A
C86          O89   1.264       .  A
Cd87         O94   2.429       .  S
Cd87         O93   2.470       .  S
Cd87         O92   2.508       .  S
Cd87         O88   2.468       .  S
Cd87         O91   2.485       .  S
Cd87         O89   2.483       .  S
C90         C435   1.432       .  S
C90          O94   1.261       .  A
N95         C100   1.352       .  A
N95          C99   1.354       .  A
N95         H127   1.040       .  S
N96         C103   1.350       .  A
N96         C104   1.349       .  A
N97         C102   1.353       .  A
N97         C101   1.347       .  A
N97         H128   1.038       .  S
N98         C105   1.348       .  A
N98         C106   1.347       .  A
C99         C107   1.389   1_455  A
C99         C115   1.414       .  A
C100        C116   1.412       .  A
C100        C108   1.387   1_455  A
C101        C109   1.386       .  A
C101        C118   1.408       .  A
C102        C117   1.415       .  A
C102        C110   1.388       .  A
C103        C115   1.405       .  A
C103        C111   1.384       .  A
C104        C118   1.412       .  A
C104        C112   1.388       .  A
C105        C116   1.408       .  A
C105        C553   1.387       .  A
C106        C117   1.408       .  A
C106        C554   1.386       .  A
C107        C108   1.371       .  A
C107        H119   1.082       .  S
C108        H120   1.079       .  S
C109        C110   1.383       .  A
C109        H121   1.082       .  S
C110        H122   1.082       .  S
C111        C112   1.378       .  A
C111        H123   1.082       .  S
C112        H124   1.082       .  S
C113        C114   1.375       .  A
C113        C545   1.388       .  A
C113        H125   1.083       .  S
C114        C546   1.386       .  A
C114        H126   1.082       .  S
C115        C419   1.448   1_455  S
C116        C415   1.444   1_455  S
C117        C854   1.452       .  S
C118        C412   1.444       .  S
N129        C134   1.353       .  A
N129        C573   1.356       .  A
N129        H161   1.038       .  S
N130        C137   1.347       .  A
N130        C138   1.345       .  A
N131        C136   1.352       .  A
N131        C135   1.345   1_554  A
N131        H162   1.040       .  S
N132        C139   1.347       .  A
N132        C140   1.349       .  A
C133        N569   1.355       .  A
C133        C141   1.388   1_655  A
C133        C149   1.412       .  A
C134        C150   1.415       .  A
C134        C142   1.387   1_655  A
C135        C143   1.384       .  A
C135        C592   1.402       .  A
C136        C151   1.411       .  A
C136        C144   1.389       .  A
C137        C149   1.400       .  A
C137        C145   1.384       .  A
C138        C152   1.405       .  A
C138        C146   1.389       .  A
C139        C147   1.389       .  A
C139        C150   1.409       .  A
C140        C148   1.384       .  A
C140        C151   1.407       .  A
C141        C582   1.368   1_455  A
C141        H153   1.081       .  S
C142        C581   1.367       .  A
C142        H154   1.079       .  S
C143        C144   1.381   1_556  A
C143        H155   1.082       .  S
C144        H156   1.082       .  S
C145        C146   1.376       .  A
C145        H157   1.082       .  S
C146        H158   1.082       .  S
C147        C148   1.376       .  A
C147        H159   1.083       .  S
C148        H160   1.082       .  S
C149        C409   1.446       .  S
C150        C416   1.443       .  S
C151        C422   1.451       .  S
C152        C575   1.404       .  A
C152        C407   1.430       .  S
O163        C166   1.262       .  A
O163       Cd168   2.454       .  S
C164        C405   1.441       .  S
C164        O173   1.263       .  A
C164        O169   1.264       .  A
O165        C171   1.265       .  A
O165       Cd168   2.498       .  S
C166        C437   1.438       .  S
C166        O174   1.267       .  A
C167        C403   1.433       .  S
C167        O172   1.265       .  A
C167        O170   1.263       .  A
Cd168       O175   2.496       .  S
Cd168       O174   2.491       .  S
Cd168       O173   2.468       .  S
Cd168       O169   2.497       .  S
Cd168       O172   2.459       .  S
Cd168       O170   2.466       .  S
C171        C430   1.447       .  S
C171        O175   1.264       .  A
O176        C179   1.266       .  A
O176       Cd181   2.484       .  S
C177        C413   1.447       .  S
C177        O186   1.264       .  A
C177        O182   1.262       .  A
O178        C184   1.261       .  A
O178       Cd181   2.437       .  S
C179        C406   1.440       .  S
C179        O187   1.264       .  A
C180        C402   1.434       .  S
C180        O185   1.264       .  A
C180        O183   1.263       .  A
Cd181       O188   2.491       .  S
Cd181       O187   2.461       .  S
Cd181       O186   2.513       .  S
Cd181       O182   2.489       .  S
Cd181       O185   2.463       .  S
Cd181       O183   2.473       .  S
C184        C410   1.431       .  S
C184        O188   1.264       .  A
N189        C194   1.355       .  A
N189        C193   1.354       .  A
N189        H221   1.040       .  S
N190        C197   1.348       .  A
N190        C198   1.347       .  A
N191        C196   1.348       .  A
N191        C195   1.353       .  A
N191        H222   1.039       .  S
N192        C199   1.346       .  A
N192        C200   1.349       .  A
C193        C201   1.387       .  A
C193        C209   1.415       .  A
C194        C210   1.416       .  A
C194        C202   1.389       .  A
C195        C203   1.388       .  A
C195        C212   1.412       .  A
C196        C211   1.408       .  A
C196        C204   1.386       .  A
C197        C209   1.409       .  A
C197        C205   1.389       .  A
C198        C212   1.407       .  A
C198        C206   1.385       .  A
C199        C207   1.384       .  A
C199        C210   1.403       .  A
C200        C208   1.387       .  A
C200        C211   1.410       .  A
C201        C202   1.370       .  A
C201        H213   1.079       .  S
C202        H214   1.082       .  S
C203        C204   1.380       .  A
C203        H215   1.082       .  S
C204        H216   1.082       .  S
C205        C206   1.375       .  A
C205        H217   1.082       .  S
C206        H218   1.082       .  S
C207        C208   1.379       .  A
C207        H219   1.082       .  S
C208        H220   1.082       .  S
C209        C399   1.444       .  S
C210        C395   1.448       .  S
C211        C404   1.444       .  S
C212        C398   1.450       .  S
N223        C228   1.354       .  A
N223        C227   1.353       .  A
N223        H255   1.040       .  S
N224        C231   1.348       .  A
N224        C232   1.347       .  A
N225        C230   1.348       .  A
N225        C229   1.354       .  A
N225        H256   1.039       .  S
N226        C233   1.350       .  A
N226        C234   1.351       .  A
C227        C235   1.386       .  A
C227        C243   1.412       .  A
C228        C244   1.415   1_565  A
C228        C236   1.390       .  A
C229        C237   1.388       .  A
C229        C246   1.417       .  A
C230        C245   1.411   1_565  A
C230        C238   1.385       .  A
C231        C243   1.408       .  A
C231        C239   1.388       .  A
C232        C246   1.408       .  A
C232        C240   1.385       .  A
C233        C241   1.384       .  A
C233        C244   1.408       .  A
C234        C242   1.388       .  A
C234        C245   1.414       .  A
C235        C236   1.368       .  A
C235        H247   1.080       .  S
C236        H248   1.081       .  S
C237        C238   1.384       .  A
C237        H249   1.082       .  S
C238        H250   1.082   1_565  S
C239        C240   1.375       .  A
C239        H251   1.082       .  S
C240        H252   1.082       .  S
C241        C242   1.379       .  A
C241        H253   1.082       .  S
C242        H254   1.082       .  S
C243        C400   1.444       .  S
C244        C391   1.451       .  S
C245        C417   1.451       .  S
C246        C394   1.454       .  S
O257        C260   1.266       .  A
O257       Cd262   2.475       .  S
C258        C387   1.441       .  S
C258        O267   1.263       .  A
C258        O263   1.264       .  A
O259        C265   1.259       .  A
O259       Cd262   2.478       .  S
C260        C389   1.433       .  S
C260        O268   1.264       .  A
C261        C411   1.433       .  S
C261        O266   1.261       .  A
C261        O264   1.262       .  A
Cd262       O269   2.458       .  S
Cd262       O268   2.432       .  S
Cd262       O267   2.474       .  S
Cd262       O263   2.494       .  S
Cd262       O266   2.473       .  S
Cd262       O264   2.471       .  S
C265        C385   1.429       .  S
C265        O269   1.262       .  A
O270        C273   1.260       .  A
O270       Cd275   2.445       .  S
C271        C397   1.438   1_545  S
C271        O280   1.263       .  A
C271        O276   1.264       .  A
O272        C278   1.263       .  A
O272       Cd275   2.462       .  S
C273        C390   1.434       .  S
C273        O281   1.264       .  A
C274        C392   1.437       .  S
C274        O279   1.265       .  A
C274        O277   1.266       .  A
Cd275       O282   2.471       .  S
Cd275       O281   2.496       .  S
Cd275       O280   2.458       .  S
Cd275       O276   2.496       .  S
Cd275       O279   2.464       .  S
Cd275       O277   2.473       .  S
C278        C434   1.432       .  S
C278        O282   1.261       .  A
N283        C288   1.353       .  A
N283        C287   1.354       .  A
N283        H315   1.041       .  S
N284        C291   1.350       .  A
N284        C292   1.349       .  A
N285        C290   1.355       .  A
N285        C289   1.350       .  A
N285        H316   1.038       .  S
N286        C293   1.348       .  A
N286        C294   1.348       .  A
C287        C295   1.389       .  A
C287        C303   1.413       .  A
C288        C304   1.412       .  A
C288        C296   1.387       .  A
C289        C297   1.386       .  A
C289        C306   1.412       .  A
C290        C305   1.416       .  A
C290        C298   1.388       .  A
C291        C303   1.405       .  A
C291        C299   1.384       .  A
C292        C306   1.413       .  A
C292        C300   1.389       .  A
C293        C301   1.387       .  A
C293        C304   1.407       .  A
C294        C302   1.386       .  A
C294        C305   1.409       .  A
C295        C296   1.367       .  A
C295        H307   1.081       .  S
C296        H308   1.080       .  S
C297        C298   1.381       .  A
C297        H309   1.082       .  S
C298        H310   1.082       .  S
C299        C300   1.376       .  A
C299        H311   1.082       .  S
C300        H312   1.082       .  S
C301        C302   1.374       .  A
C301        H313   1.082       .  S
C302        H314   1.082       .  S
C303        C382   1.448       .  S
C304        C383   1.444       .  S
C305        C388   1.453       .  S
C306        C401   1.446       .  S
N317        C322   1.359       .  A
N317        C321   1.356       .  A
N317        H349   1.038       .  S
N318        C325   1.348       .  A
N318        C326   1.350       .  A
N319        C324   1.349       .  A
N319        C323   1.347       .  A
N319        H350   1.033       .  S
N320        C327   1.343       .  A
N320        C328   1.343       .  A
C321        C329   1.388       .  A
C321        C337   1.419       .  A
C322        C338   1.419       .  A
C322        C330   1.387       .  A
C323        C331   1.384       .  A
C323        C340   1.403       .  A
C324        C339   1.414       .  A
C324        C332   1.391       .  A
C325        C337   1.412       .  A
C325        C333   1.390       .  A
C326        C340   1.410       .  A
C326        C334   1.385       .  A
C327        C335   1.386       .  A
C327        C338   1.402       .  A
C328        C336   1.388       .  A
C328        C339   1.407       .  A
C329        C330   1.364       .  A
C329        H341   1.079       .  S
C330        H342   1.081       .  S
C331        C332   1.378       .  A
C331        H343   1.083       .  S
C332        H344   1.082       .  S
C333        C334   1.371       .  A
C333        H345   1.083       .  S
C334        H346   1.082       .  S
C335        C336   1.375       .  A
C335        H347   1.082       .  S
C336        H348   1.082       .  S
C337        C384   1.446       .  S
C338        C386   1.446       .  S
C339        C423   1.434       .  S
C340        C379   1.442       .  S
O351        C354   1.260       .  A
O351       Cd356   2.431       .  S
C352        C377   1.428       .  S
C352        O361   1.260       .  A
C352        O357   1.265       .  A
O353        C359   1.263       .  A
O353       Cd356   2.467       .  S
C354        C380   1.430       .  S
C354        O362   1.265       .  A
C355        C408   1.416       .  S
C355        O360   1.266       .  A
C355        O358   1.264       .  A
Cd356       O363   2.468       .  S
Cd356       O362   2.490       .  S
Cd356       O361   2.434       .  S
Cd356       O357   2.467       .  S
Cd356       O360   2.409       .  S
Cd356       O358   2.414       .  S
C359        C381   1.433       .  S
C359        O363   1.262       .  A
O364        C367   1.264       .  A
O364       Cd369   2.439       .  S
C365        C393   1.442       .  S
C365        O374   1.264       .  A
C365        O370   1.262       .  A
O366        C372   1.267       .  A
O366       Cd369   2.500       .  S
C367        C378   1.428       .  S
C367        O375   1.266       .  A
C368        C428   1.439       .  S
C368        O373   1.265       .  A
C368        O371   1.264       .  A
Cd369       O376   2.434       .  S
Cd369       O375   2.451       .  S
Cd369       O374   2.512       .  S
Cd369       O370   2.461       .  S
Cd369       O373   2.485       .  S
Cd369       O371   2.465       .  S
C372        C396   1.433       .  S
C372        O376   1.258       .  A
C377        C378   1.202       .  T
C379        C380   1.203       .  T
C381        C382   1.205       .  T
C383        C384   1.202       .  T
C385        C386   1.203       .  T
C387        C388   1.209       .  T
C389        C390   1.205       .  T
C391        C392   1.207       .  T
C393        C394   1.210       .  T
C395        C396   1.205       .  T
C397        C398   1.208       .  T
C399        C400   1.202       .  T
C401        C402   1.205       .  T
C403        C404   1.204       .  T
C405        C406   1.209       .  T
C407        C408   1.195       .  T
C409        C410   1.204   1_655  T
C411        C412   1.204       .  T
C413        C414   1.213       .  T
C414        C557   1.458       .  S
C415        C416   1.202       .  T
C417        C418   1.209       .  T
C419        C420   1.206       .  T
C421        C422   1.208       .  T
C423        C424   1.197       .  T
C425        C426   1.208       .  T
C427        C428   1.208       .  T
C429        C430   1.213       .  T
C431        C432   1.210   1_554  T
C433        C434   1.204       .  T
C435        C436   1.205       .  T
C437        C438   1.208       .  T
C438        C464   1.450       .  S
C439        C440   1.204       .  T
N441        C446   1.354       .  A
N441        C445   1.353       .  A
N441        H473   1.040       .  S
N442        C449   1.348       .  A
N442        C450   1.347       .  A
N443        C448   1.347       .  A
N443        C447   1.353   1_545  A
N443        H474   1.038       .  S
N444        C451   1.348       .  A
N444        C452   1.349       .  A
C445        C453   1.386   1_455  A
C445        C461   1.412       .  A
C446        C462   1.416       .  A
C446        C454   1.390   1_455  A
C447        C455   1.388       .  A
C447        C464   1.414       .  A
C448        C463   1.408       .  A
C448        C456   1.386   1_545  A
C449        C461   1.409       .  A
C450        C464   1.408   1_545  A
C451        C459   1.385       .  A
C451        C462   1.405       .  A
C452        C460   1.388       .  A
C452        C463   1.411       .  A
C453        C454   1.369       .  A
C453        H465   1.079       .  S
C454        H466   1.081       .  S
C455        C456   1.382       .  A
C455        H467   1.082       .  S
C456        H468   1.082       .  S
C457        C458   1.376       .  A
C457        H469   1.082       .  S
C458        H470   1.083       .  S
C459        C460   1.379       .  A
C459        H471   1.082       .  S
C460        H472   1.082       .  S
C461        C880   1.447       .  S
C462        C876   1.448   1_455  S
C463        C873   1.444       .  S
N475        C479   1.353   1_565  A
N475        H507   1.034       .  S
N476        C483   1.349       .  A
N476        C484   1.350       .  A
N477        C482   1.349       .  A
N477        C481   1.355       .  A
N477        H508   1.036       .  S
N478        C485   1.349       .  A
N478        C486   1.350       .  A
C479        C487   1.387   1_645  A
C479        C495   1.418       .  A
C480        C496   1.418   1_455  A
C480        C488   1.389       .  A
C481        C489   1.388       .  A
C481        C498   1.419   1_565  A
C482        C490   1.386       .  A
C483        C495   1.413       .  A
C483        C491   1.388       .  A
C484        C498   1.412       .  A
C484        C492   1.386       .  A
C485        C493   1.385       .  A
C485        C496   1.407       .  A
C486        C494   1.388       .  A
C486        C497   1.412       .  A
C487        H499   1.078   1_565  S
C488        H500   1.082       .  S
C489        C490   1.382       .  A
C489        H501   1.082       .  S
C490        H502   1.082       .  S
C491        C492   1.373       .  A
C491        H503   1.083       .  S
C492        H504   1.082       .  S
C493        C494   1.376       .  A
C493        H505   1.082       .  S
C494        H506   1.082       .  S
C495        C879   1.447   1_655  S
C496        C869   1.452   1_655  S
C497        C867   1.447       .  S
C498        C872   1.457       .  S
O509        C512   1.264       .  A
O509       Cd514   2.492       .  S
C510        C865   1.432       .  S
C510        O519   1.264       .  A
C510        O515   1.262       .  A
O511        C517   1.266       .  A
O511       Cd514   2.487       .  S
C512        C861   1.432       .  S
C512        O520   1.262       .  A
C513        C864   1.428       .  S
C513        O518   1.262       .  A
C513        O516   1.264       .  A
Cd514       O521   2.483       .  S
Cd514       O520   2.437       .  S
Cd514       O519   2.470       .  S
Cd514       O515   2.451       .  S
Cd514       O518   2.446       .  S
Cd514       O516   2.457       .  S
C517        C860   1.443       .  S
C517        O521   1.264       .  A
O522        C525   1.263       .  A
O522       Cd527   2.451       .  S
C523        C871   1.444       .  S
C523        O532   1.263       .  A
C523        O528   1.264       .  A
O524        C530   1.262       .  A
O524       Cd527   2.442       .  S
C525        C866   1.432       .  S
C525        O533   1.264       .  A
C526        C858   1.434       .  S
C526        O531   1.264       .  A
C526        O529   1.263       .  A
Cd527       O534   2.490       .  S
Cd527       O533   2.470       .  S
Cd527       O532   2.481       .  S
Cd527       O528   2.501       .  S
Cd527       O531   2.466       .  S
Cd527       O529   2.468       .  S
C530        C875   1.434       .  S
C530        O534   1.264       .  A
N535        C540   1.352       .  A
N535        C539   1.355       .  A
N535        H567   1.039       .  S
N536        C543   1.352       .  A
N536        C544   1.351       .  A
N537        C542   1.356       .  A
N537        C541   1.349       .  A
N537        H568   1.038       .  S
N538        C545   1.347       .  A
N538        C546   1.348       .  A
C539        C547   1.389   1_455  A
C539        C555   1.415       .  A
C540        C556   1.412       .  A
C540        C548   1.387   1_455  A
C541        C549   1.386       .  A
C541        C558   1.414       .  A
C542        C557   1.421       .  A
C542        C550   1.388       .  A
C543        C555   1.410       .  A
C543        C551   1.383       .  A
C544        C558   1.417       .  A
C544        C552   1.389       .  A
C545        C556   1.408       .  A
C546        C557   1.409       .  A
C547        C548   1.366       .  A
C547        H559   1.080       .  S
C548        H560   1.079       .  S
C549        C550   1.386       .  A
C549        H561   1.082       .  S
C550        H562   1.082       .  S
C551        C552   1.381       .  A
C551        H563   1.082       .  S
C552        H564   1.082       .  S
C553        C554   1.375       .  A
C553        H565   1.082       .  S
C554        H566   1.082       .  S
C555        C859   1.456   1_455  S
C556        C855   1.441   1_455  S
C558        C852   1.454       .  S
N569        C574   1.351       .  A
N569        H601   1.041       .  S
N570        C577   1.345       .  A
N570        C578   1.346       .  A
N571        C576   1.352       .  A
N571        C575   1.345       .  A
N571        H602   1.039       .  S
N572        C579   1.347       .  A
N572        C580   1.347       .  A
C573        C581   1.388   1_655  A
C573        C589   1.417   1_554  A
C574        C590   1.411       .  A
C574        C582   1.387       .  A
C575        C583   1.386       .  A
C576        C591   1.410       .  A
C576        C584   1.388       .  A
C577        C589   1.401       .  A
C577        C585   1.385       .  A
C578        C592   1.404       .  A
C578        C586   1.387       .  A
C579        C587   1.388       .  A
C579        C590   1.408       .  A
C580        C588   1.386       .  A
C580        C591   1.407       .  A
C581        H593   1.080       .  S
C582        H594   1.079   1_655  S
C583        C584   1.379       .  A
C583        H595   1.082       .  S
C584        H596   1.082       .  S
C585        C586   1.378       .  A
C585        H597   1.082       .  S
C586        H598   1.082       .  S
C587        C588   1.375       .  A
C587        H599   1.082       .  S
C588        H600   1.083       .  S
C589        C849   1.446   1_655  S
C590        C856   1.441       .  S
C591        C862   1.445       .  S
C592        C847   1.436       .  S
O603        C606   1.266       .  A
O603       Cd608   2.483       .  S
C604        C845   1.435       .  S
C604        O613   1.263       .  A
C604        O609   1.264       .  A
O605        C611   1.261       .  A
O605       Cd608   2.466       .  S
C606        C877   1.430       .  S
C606        O614   1.260       .  A
C607        C843   1.423       .  S
C607        O612   1.264       .  A
C607        O610   1.264       .  A
Cd608       O615   2.484       .  S
Cd608       O614   2.429       .  S
Cd608       O613   2.454       .  S
Cd608       O609   2.487       .  S
Cd608       O612   2.442       .  S
Cd608       O610   2.425       .  S
C611        C870   1.436       .  S
C611        O615   1.265       .  A
O616        C619   1.263       .  A
O616       Cd621   2.429       .  S
C617        C853   1.440       .  S
C617        O626   1.264       .  A
C617        O622   1.262       .  A
O618        C624   1.266       .  A
O618       Cd621   2.494       .  S
C619        C846   1.434       .  S
C619        O627   1.266   1_556  A
C620        C842   1.433       .  S
C620        O625   1.263       .  A
C620        O623   1.263       .  A
Cd621       O628   2.420       .  S
Cd621       O627   2.486   1_556  S
Cd621       O626   2.508   1_556  S
Cd621       O622   2.467   1_556  S
Cd621       O625   2.477       .  S
Cd621       O623   2.455       .  S
C624        C850   1.432       .  S
C624        O628   1.261       .  A
N629        C634   1.355       .  A
N629        C633   1.351       .  A
N629        H661   1.042       .  S
N630        C637   1.346       .  A
N630        C638   1.346       .  A
N631        C636   1.346       .  A
N631        C635   1.352       .  A
N631        H662   1.040       .  S
N632        C639   1.347       .  A
N632        C640   1.346       .  A
C633        C641   1.387       .  A
C633        C649   1.411       .  A
C634        C650   1.409       .  A
C634        C642   1.386       .  A
C635        C643   1.389       .  A
C635        C652   1.412       .  A
C636        C651   1.404       .  A
C636        C644   1.385       .  A
C637        C649   1.407       .  A
C637        C645   1.388       .  A
C638        C652   1.406       .  A
C638        C646   1.386       .  A
C639        C647   1.384       .  A
C639        C650   1.400       .  A
C640        C648   1.388       .  A
C640        C651   1.405       .  A
C641        C642   1.366       .  A
C641        H653   1.077       .  S
C642        H654   1.081       .  S
C643        C644   1.381       .  A
C643        H655   1.082       .  S
C644        H656   1.082       .  S
C645        C646   1.377       .  A
C645        H657   1.082       .  S
C646        H658   1.083       .  S
C647        C648   1.378       .  A
C647        H659   1.082       .  S
C648        H660   1.082       .  S
C649        C839   1.442       .  S
C650        C835   1.445       .  S
C651        C844   1.434       .  S
C652        C838   1.446       .  S
N663        C668   1.356       .  A
N663        C667   1.353       .  A
N663        H695   1.037       .  S
N664        C671   1.350       .  A
N664        C672   1.350       .  A
N665        C670   1.351       .  A
N665        C669   1.355       .  A
N665        H696   1.037       .  S
N666        C673   1.351   1_565  A
N666        C674   1.350   1_565  A
C667        C675   1.388       .  A
C667        C683   1.415       .  A
C668        C684   1.416   1_565  A
C668        C676   1.388       .  A
C669        C677   1.388       .  A
C669        C686   1.417       .  A
C670        C685   1.413   1_565  A
C670        C678   1.386       .  A
C671        C683   1.413       .  A
C671        C679   1.388       .  A
C672        C686   1.412       .  A
C672        C680   1.387       .  A
C673        C681   1.384       .  A
C673        C684   1.408       .  A
C674        C682   1.389       .  A
C674        C685   1.414       .  A
C675        C676   1.366       .  A
C675        H687   1.081       .  S
C676        H688   1.081       .  S
C677        C678   1.380       .  A
C677        H689   1.082       .  S
C678        H690   1.082   1_565  S
C679        C680   1.373       .  A
C679        H691   1.083       .  S
C680        H692   1.082       .  S
C681        C682   1.376       .  A
C681        H693   1.082       .  S
C682        H694   1.082       .  S
C683        C840   1.444       .  S
C684        C831   1.455       .  S
C685        C857   1.448       .  S
C686        C834   1.453       .  S
O697        C700   1.265       .  A
O697       Cd702   2.497       .  S
C698        C827   1.444       .  S
C698        O707   1.266       .  A
C698        O703   1.261       .  A
O699        C705   1.267       .  A
O699       Cd702   2.500       .  S
C700        C829   1.440       .  S
C700        O708   1.264       .  A
C701        C851   1.445       .  S
C701        O706   1.264       .  A
C701        O704   1.264       .  A
Cd702       O709   2.439       .  S
Cd702       O708   2.463       .  S
Cd702       O707   2.516       .  S
Cd702       O703   2.469       .  S
Cd702       O706   2.501       .  S
Cd702       O704   2.485       .  S
C705        C825   1.438       .  S
C705        O709   1.262       .  A
O710        C713   1.265       .  A
O710       Cd715   2.507       .  S
C711        C837   1.434   1_545  S
C711        O720   1.262       .  A
C711        O716   1.266       .  A
O712        C718   1.266       .  A
O712       Cd715   2.454       .  S
C713        C830   1.440       .  S
C713        O721   1.260       .  A
C714        C832   1.441       .  S
C714        O719   1.263       .  A
C714        O717   1.263       .  A
Cd715       O722   2.453       .  S
Cd715       O721   2.461       .  S
Cd715       O720   2.439       .  S
Cd715       O716   2.493       .  S
Cd715       O719   2.493       .  S
Cd715       O717   2.484       .  S
C718        C874   1.432       .  S
C718        O722   1.263       .  A
N723        C728   1.354       .  A
N723        C727   1.356       .  A
N723        H755   1.040       .  S
N724        C731   1.350       .  A
N724        C732   1.349       .  A
N725        C730   1.354       .  A
N725        C729   1.346       .  A
N725        H756   1.038       .  S
N726        C733   1.347       .  A
N726        C734   1.349       .  A
C727        C735   1.389       .  A
C727        C743   1.417       .  A
C728        C744   1.415       .  A
C728        C736   1.387       .  A
C729        C737   1.385       .  A
C729        C746   1.408       .  A
C730        C745   1.416       .  A
C730        C738   1.388       .  A
C731        C743   1.407       .  A
C731        C739   1.384       .  A
C732        C746   1.412       .  A
C732        C740   1.389       .  A
C733        C741   1.388       .  A
C733        C744   1.407       .  A
C734        C742   1.384       .  A
C734        C745   1.408       .  A
C735        C736   1.370       .  A
C735        H747   1.082       .  S
C736        H748   1.080       .  S
C737        C738   1.384       .  A
C737        H749   1.082       .  S
C738        H750   1.082       .  S
C739        C740   1.377       .  A
C739        H751   1.082       .  S
C740        H752   1.082       .  S
C741        C742   1.374       .  A
C741        H753   1.083       .  S
C742        H754   1.082       .  S
C743        C822   1.452       .  S
C744        C823   1.443       .  S
C745        C828   1.457       .  S
C746        C841   1.444       .  S
N757        C762   1.356       .  A
N757        C761   1.355       .  A
N757        H789   1.038       .  S
N758        C765   1.346       .  A
N758        C766   1.347       .  A
N759        C764   1.346       .  A
N759        C763   1.352       .  A
N759        H790   1.038       .  S
N760        C767   1.350       .  A
N760        C768   1.350       .  A
C761        C769   1.387       .  A
C761        C777   1.417       .  A
C762        C778   1.418       .  A
C762        C770   1.389       .  A
C763        C771   1.388       .  A
C763        C780   1.411       .  A
C764        C779   1.405       .  A
C764        C772   1.386       .  A
C765        C777   1.407       .  A
C765        C773   1.389       .  A
C766        C780   1.405       .  A
C766        C774   1.385       .  A
C767        C775   1.385       .  A
C767        C778   1.408       .  A
C768        C776   1.387       .  A
C768        C779   1.412       .  A
C769        C770   1.370       .  A
C769        H781   1.079       .  S
C770        H782   1.081       .  S
C771        C772   1.380       .  A
C771        H783   1.082       .  S
C772        H784   1.082       .  S
C773        C774   1.372       .  A
C773        H785   1.082       .  S
C774        H786   1.083       .  S
C775        C776   1.377       .  A
C775        H787   1.082       .  S
C776        H788   1.082       .  S
C777        C824   1.444       .  S
C778        C826   1.454       .  S
C779        C863   1.441       .  S
C780        C819   1.446       .  S
O791        C794   1.262       .  A
O791       Cd796   2.459       .  S
C792        C817   1.433       .  S
C792        O801   1.262       .  A
C792        O797   1.262       .  A
O793        C799   1.264       .  A
O793       Cd796   2.494       .  S
C794        C820   1.433       .  S
C794        O802   1.265       .  A
C795        C848   1.425       .  S
C795        O800   1.262       .  A
C795        O798   1.265       .  A
Cd796       O803   2.463       .  S
Cd796       O802   2.464       .  S
Cd796       O801   2.458       .  S
Cd796       O797   2.480       .  S
Cd796       O800   2.431       .  S
Cd796       O798   2.451       .  S
C799        C821   1.439       .  S
C799        O803   1.264       .  A
O804        C807   1.262       .  A
O804       Cd809   2.438       .  S
C805        C833   1.439       .  S
C805        O814   1.264       .  A
C805        O810   1.263       .  A
O806        C812   1.263       .  A
O806       Cd809   2.440       .  S
C807        C818   1.433       .  S
C807        O815   1.264       .  A
C808        C868   1.435       .  S
C808        O813   1.264       .  A
C808        O811   1.262       .  A
Cd809       O816   2.480       .  S
Cd809       O815   2.485       .  S
Cd809       O814   2.496       .  S
Cd809       O810   2.463       .  S
Cd809       O813   2.473       .  S
Cd809       O811   2.471       .  S
C812        C836   1.432       .  S
C812        O816   1.265       .  A
C817        C818   1.205       .  T
C819        C820   1.204       .  T
C821        C822   1.208       .  T
C823        C824   1.201       .  T
C825        C826   1.208       .  T
C827        C828   1.212       .  T
C829        C830   1.209       .  T
C831        C832   1.210       .  T
C833        C834   1.209       .  T
C835        C836   1.204       .  T
C837        C838   1.205       .  T
C839        C840   1.202       .  T
C841        C842   1.205       .  T
C843        C844   1.199       .  T
C845        C846   1.205       .  T
C847        C848   1.200       .  T
C849        C850   1.204       .  T
C851        C852   1.211       .  T
C853        C854   1.209       .  T
C855        C856   1.200       .  T
C857        C858   1.206       .  T
C859        C860   1.211       .  T
C861        C862   1.204       .  T
C863        C864   1.202       .  T
C865        C866   1.204       .  T
C867        C868   1.206       .  T
C869        C870   1.207       .  T
C871        C872   1.211       .  T
C873        C874   1.204       .  T
C875        C876   1.205       .  T
C877        C878   1.203   1_556  T
C879        C880   1.204       .  T
