geometry optimzed in LAMMPS
_audit_creation_date              2020-11-30 
_audit_creation_method            'lammps2cif' 
_symmetry_space_group_name_H-M    'P1' 
_symmetry_Int_Tables_number       1 
_symmetry_cell_setting            triclinic 
loop_ 
_symmetry_equiv_pos_as_xyz 
  x,y,z 
_cell_length_a                    19.027498649386605 
_cell_length_b                    39.90671381750949 
_cell_length_c                    38.9744284431353 
_cell_angle_alpha                 91.24726015485801 
_cell_angle_beta                  100.24556402924367 
_cell_angle_gamma                 90.36876696758712 
loop_ 
_atom_site_label 
_atom_site_type_symbol 
_atom_site_fract_x 
_atom_site_fract_y 
_atom_site_fract_z 
_atom_site_charge 
C1          C  0.58774896  0.19024112  0.46163841    -0.02260
C2          C  0.90905856  0.19440876  0.02479787    -0.02260
O3          O  0.48216627  0.04174786  0.50710051    -0.74190
O4          O  0.43647062  0.44930629  0.02257230    -0.74230
O5          O  0.48794872  0.00352083  0.06398257    -0.74280
O6          O  0.42572943  0.48889203  0.46521027    -0.74330
O7          O  0.53524638  0.47384743  0.45905627    -0.74260
O8          O  0.59889157  0.48919358  0.05933802    -0.74240
O9          O  0.54687770  0.43529479  0.01751744    -0.74220
O10         O  0.59164878  0.02659379  0.50172268    -0.74280
Ni11       Ni  0.45420277  0.49630245  0.51487393     1.25410
Ni12       Ni  0.57197386  0.48063687  0.00917344     1.25360
C13         C  0.54539589  0.04949601  0.50221370     0.87980
C14         C  0.48473177  0.42678371  0.02254988     0.87920
C15         C  0.55344235  0.99972880  0.07788708     0.87940
C16         C  0.46924817  0.47898697  0.44562739     0.88120
O17         O  0.08308486  0.45181402  0.49048522    -0.74190
O18         O  0.03367122  0.04154471  0.01374513    -0.74230
O19         O  0.06982295  0.48503275  0.04990003    -0.74280
O20         O  0.04608860  0.00836140  0.45342298    -0.74330
O21         O  0.93166809  0.49298332  0.44619438    -0.74260
O22         O  0.95517157  0.47007202  0.04188441    -0.74240
O23         O  0.91868549  0.02650525  0.00572940    -0.74220
O24         O  0.96809795  0.43670096  0.48281904    -0.74280
Ni25       Ni  0.06234103  0.49724590  0.00209995     1.25410
Ni26       Ni  0.93941206  0.48103552  0.49388340     1.25360
C27         C  0.03379263  0.42940885  0.48367442     0.87980
C28         C  0.96808907  0.04879048  0.01349581     0.87920
C29         C  0.01600023  0.47351082  0.06171085     0.87940
C30         C  0.98452048  0.00488767  0.43393365     0.88120
C31         C  0.40024087  0.28157773  0.03788593    -0.02260
C32         C  0.09721698  0.28803094  0.45439742    -0.02260
C33         C  0.07008904  0.44377045  0.21240433    -0.02260
C34         C  0.37788419  0.44789040  0.29160952    -0.02260
O35         O  0.56117384  0.20246281  0.24415052    -0.74190
O36         O  0.51413210  0.29551713  0.26092004    -0.74230
O37         O  0.56358708  0.24281231  0.30102117    -0.74280
O38         O  0.51431077  0.25585372  0.20338928    -0.74330
O39         O  0.40089691  0.24197558  0.20425081    -0.74260
O40         O  0.45137122  0.22664011  0.30207894    -0.74240
O41         O  0.40216386  0.28001840  0.26281163    -0.74220
O42         O  0.44788500  0.18792132  0.24398413    -0.74280
Ni43       Ni  0.54222457  0.24974142  0.25222232     1.25410
Ni44       Ni  0.42155929  0.23361537  0.25326933     1.25360
C45         C  0.51213338  0.17970601  0.24191519     0.87980
C46         C  0.45044604  0.30293331  0.26519157     0.87920
C47         C  0.51600110  0.23195385  0.31737488     0.87940
C48         C  0.44965317  0.25190664  0.18789296     0.88120
O49         O  0.94870960  0.19693342  0.24999563    -0.74190
O50         O  0.97447008  0.28813811  0.22864166    -0.74230
O51         O  0.94336697  0.23143772  0.19067418    -0.74280
O52         O  0.97543880  0.25367655  0.28695095    -0.74330
O53         O  0.09162836  0.24526687  0.29023483    -0.74260
O54         O  0.05903226  0.22292968  0.19219343    -0.74240
O55         O  0.09015059  0.27884350  0.23091143    -0.74220
O56         O  0.06533583  0.18859672  0.25221010    -0.74280
Ni57       Ni  0.95626445  0.24278467  0.23877960     1.25410
Ni58       Ni  0.08075110  0.23351713  0.24138827     1.25360
C59         C  0.00401265  0.17850199  0.25654267     0.87980
C60         C  0.03754080  0.29864444  0.22690060     0.87920
C61         C  0.99518232  0.22466687  0.17495311     0.87940
C62         C  0.03806280  0.25272182  0.30488543     0.88120
C63         C  0.59675611  0.03397081  0.23029518    -0.02260
C64         C  0.91904377  0.04692275  0.28569267    -0.02260
C65         C  0.71827498  0.06394774  0.23831412    -0.05550
C66         C  0.68072690  0.03580347  0.24853355     0.00380
C67         C  0.72674350  0.01502562  0.27331907    -0.08190
C68         C  0.80074854  0.01799497  0.27603371    -0.05570
C69         C  0.83609325  0.04771056  0.27032428     0.00370
C70         C  0.79104055  0.07254554  0.25107838    -0.08100
C71         C  0.81243215  0.10849319  0.24409505     0.62280
H72         H  0.68758902  0.08207919  0.22256405     0.12970
H73         H  0.83192316  0.99817789  0.28922104     0.12980
C74         C  0.71120018  0.99396540  0.30337605     0.62510
F75         F  0.76329316  0.12355478  0.21868677    -0.22660
F76         F  0.87562177  0.10979745  0.23226520    -0.19990
F77         F  0.81623902  0.12807927  0.27393347    -0.19660
F78         F  0.71270318  0.46043101  0.29373831    -0.19720
F79         F  0.65032735  0.00370831  0.31495202    -0.20040
F80         F  0.76397150  0.99737842  0.33270883    -0.22710
C81         C  0.03067282  0.11874303  0.25564824    -0.05550
C82         C  0.99772853  0.14529998  0.26999563     0.00380
C83         C  0.96527800  0.13975958  0.29906221    -0.08190
C84         C  0.94781057  0.10686265  0.30540913    -0.05570
C85         C  0.96374307  0.07966314  0.28451248     0.00370
C86         C  0.02212750  0.08589156  0.26624754    -0.08100
C87         C  0.08460838  0.06343410  0.26154275     0.62280
H88         H  0.06638529  0.12389622  0.23752655     0.12970
H89         H  0.91917962  0.10292615  0.32607695     0.12980
C90         C  0.95013643  0.16790906  0.32344349     0.62510
F91         F  0.14737301  0.07910788  0.27760625    -0.22660
F92         F  0.08755382  0.05969000  0.22646745    -0.19990
F93         F  0.08444463  0.03238156  0.27586067    -0.19660
F94         F  0.89788065  0.18856747  0.30653298    -0.19720
F95         F  0.01218031  0.18612844  0.33468119    -0.20040
F96         F  0.92707754  0.15595104  0.35268321    -0.22710
C97         C  0.56473796  0.12655029  0.26756270    -0.05550
C98         C  0.53006926  0.14318163  0.23831758     0.00380
C99         C  0.50867724  0.12409597  0.20743823    -0.08190
C100        C  0.52917412  0.09005997  0.20598175    -0.05570
C101        C  0.56710539  0.07209594  0.23479129     0.00370
C102        C  0.57938994  0.09153350  0.26728204    -0.08100
C103        C  0.60487620  0.07649793  0.30261652     0.62280
H104        H  0.57825773  0.14145809  0.29139142     0.12970
H105        H  0.51240602  0.07774496  0.18140280     0.12980
C106        C  0.46435295  0.13995352  0.17580332     0.62510
F107        F  0.60427860  0.09911347  0.32957724    -0.22660
F108        F  0.67409124  0.06696003  0.30619269    -0.19990
F109        F  0.56150757  0.04991414  0.30736484    -0.19660
F110        F  0.50088468  0.16724283  0.16635108    -0.19720
F111        F  0.39988143  0.15040139  0.18380234    -0.20040
F112        F  0.44986491  0.11796710  0.14740457    -0.22710
C113        C  0.41791142  0.00027810  0.25767708    -0.05550
C114        C  0.43639279  0.47136882  0.27794752     0.00380
C115        C  0.51154630  0.46418127  0.28360167    -0.08190
C116        C  0.55700253  0.48174937  0.26450527    -0.05570
C117        C  0.53859833  0.00990418  0.24383292     0.00370
C118        C  0.46277581  0.01510044  0.23654662    -0.08100
C119        C  0.42234526  0.02891203  0.20257240     0.62280
H120        H  0.36530357  0.01056742  0.25516668     0.12970
H121        H  0.60709343  0.47134767  0.26407104     0.12980
C122        C  0.54687418  0.43752763  0.30860642     0.62510
F123        F  0.36302001  0.00938345  0.19018399    -0.22660
F124        F  0.46085771  0.02753722  0.17602443    -0.19990
F125        F  0.39934961  0.06105498  0.20791761    -0.19660
F126        F  0.54755344  0.40700217  0.29133573    -0.19720
F127        F  0.51508822  0.43479074  0.33732586    -0.20040
F128        F  0.61628109  0.44532074  0.32256505    -0.22710
C129        C  0.41491693  0.38578564  0.30936297    -0.05550
C130        C  0.39912631  0.40949076  0.28241811     0.00380
C131        C  0.40940526  0.39568446  0.24831161    -0.08190
C132        C  0.43092009  0.36159492  0.24550528    -0.05570
C133        C  0.43192213  0.33862538  0.27201661     0.00370
C134        C  0.41817110  0.35098608  0.30412628    -0.08100
C135        C  0.40739114  0.32978635  0.33463814     0.62280
H136        H  0.43021991  0.39306467  0.33585666     0.12970
H137        H  0.44462892  0.35167550  0.22160471     0.12980
C138        C  0.39934619  0.41378392  0.21350844     0.62510
F139        F  0.33950943  0.33506426  0.34156664    -0.22660
F140        F  0.45587163  0.33995818  0.36372109    -0.19990
F141        F  0.41419196  0.29585422  0.32892828    -0.19660
F142        F  0.43125927  0.44468919  0.21583814    -0.19720
F143        F  0.32813047  0.41627657  0.20052700    -0.20040
F144        F  0.42819983  0.39643187  0.18821202    -0.22710
C145        C  0.95800572  0.48567428  0.27826866    -0.05550
C146        C  0.94544214  0.01757662  0.26348580     0.00380
C147        C  0.95578841  0.01951232  0.22822029    -0.08190
C148        C  0.00530860  0.49782857  0.21781320    -0.05570
C149        C  0.01946623  0.46574297  0.23152820     0.00370
C150        C  0.99156217  0.45920013  0.26324066    -0.08100
C151        C  0.99289825  0.42747721  0.28523749     0.62280
H152        H  0.94038086  0.48067285  0.30251958     0.12970
H153        H  0.02844880  0.50563711  0.19613239     0.12980
C154        C  0.91605572  0.04145737  0.19961475     0.62510
F155        F  0.92332026  0.41672941  0.28442346    -0.22660
F156        F  0.02267845  0.43548647  0.31956780    -0.19990
F157        F  0.03007787  0.40065351  0.27610263    -0.19660
F158        F  0.94393574  0.07335719  0.20163750    -0.19720
F159        F  0.84410657  0.04172230  0.20023553    -0.20040
F160        F  0.92178025  0.52886611  0.16683397    -0.22710
C161        C  0.11806929  0.38544392  0.22814967    -0.05550
C162        C  0.05743113  0.40537908  0.21587978     0.00380
C163        C  0.98975133  0.38760521  0.20537838    -0.08190
C164        C  0.98964814  0.35256058  0.20668905    -0.05570
C165        C  0.04933114  0.33430456  0.22095272     0.00370
C166        C  0.11592630  0.35072258  0.23086199    -0.08100
C167        C  0.18546778  0.33229515  0.24388480     0.62280
H168        H  0.16978067  0.39662526  0.23530137     0.12970
H169        H  0.94070914  0.33871675  0.19697684     0.12980
C170        C  0.91483003  0.40175389  0.19291279     0.62510
F171        F  0.24403603  0.35366242  0.25136991    -0.22660
F172        F  0.19927430  0.30979128  0.21846426    -0.19990
F173        F  0.18037308  0.31560206  0.27410766    -0.19660
F174        F  0.90181740  0.40317496  0.15696507    -0.19720
F175        F  0.90285239  0.43226779  0.20739005    -0.20040
F176        F  0.86281384  0.38099723  0.20214641    -0.22710
C177        C  0.16336944  0.45010859  0.26841377    -0.05550
C178        C  0.14745389  0.45626369  0.23251437     0.00380
C179        C  0.20630769  0.47011222  0.21949090    -0.08190
C180        C  0.27687422  0.46492494  0.23818331    -0.05570
C181        C  0.29479694  0.45159808  0.27231349     0.00370
C182        C  0.23187011  0.44121615  0.28582551    -0.08100
C183        C  0.22753910  0.41478739  0.31304974     0.62280
H184        H  0.12015822  0.44538017  0.28163042     0.12970
H185        H  0.31799050  0.47000990  0.22381397     0.12980
C186        C  0.20086786  0.49383910  0.18918368     0.62510
F187        F  0.16305203  0.39748678  0.30708054    -0.22660
F188        F  0.23262344  0.42983767  0.34565481    -0.19990
F189        F  0.27655607  0.39015358  0.31140856    -0.19660
F190        F  0.13246725  0.50290172  0.17546095    -0.19720
F191        F  0.23217884  0.47969424  0.16298659    -0.20040
F192        F  0.23677658  0.52328872  0.20096570    -0.22710
C193        C  0.01412244  0.27757416  0.39740314    -0.05550
C194        C  0.08392652  0.27294079  0.41638890     0.00380
C195        C  0.13016307  0.25245066  0.39916485    -0.08190
C196        C  0.11358330  0.24885511  0.36270181    -0.05570
C197        C  0.04859514  0.25881108  0.34324063     0.00370
C198        C  0.99547128  0.27163620  0.36125904    -0.08100
C199        C  0.92086285  0.28121234  0.34306312     0.62280
H200        H  0.97486263  0.28834826  0.41081575     0.12970
H201        H  0.15154626  0.23627441  0.34923177     0.12980
C202        C  0.19585765  0.23210388  0.41424936     0.62510
F203        F  0.88086370  0.29543125  0.36590744    -0.22660
F204        F  0.88405836  0.25306509  0.32811661    -0.19990
F205        F  0.92564289  0.30444491  0.31771267    -0.19660
F206        F  0.21046294  0.22878532  0.44968673    -0.19720
F207        F  0.25455639  0.24615657  0.40357332    -0.20040
F208        F  0.18710286  0.19967989  0.40057987    -0.22710
C209        C  0.47138377  0.24094165  0.12873543    -0.05550
C210        C  0.43276845  0.25828095  0.15035271     0.00380
C211        C  0.38000182  0.28075146  0.13562096    -0.08190
C212        C  0.37583604  0.28847148  0.10036851    -0.05570
C213        C  0.40915596  0.26952224  0.07693735     0.00370
C214        C  0.45087467  0.24128041  0.09237159    -0.08100
C215        C  0.46360952  0.20715514  0.07568472     0.62280
H216        H  0.51027223  0.22285638  0.14032820     0.12970
H217        H  0.34270919  0.30840905  0.09115393     0.12980
C218        C  0.32800491  0.29626763  0.15662940     0.62510
F219        F  0.44182886  0.18185607  0.09537362    -0.22660
F220        F  0.53528870  0.20253098  0.07527385    -0.19990
F221        F  0.42535814  0.20195607  0.04288416    -0.19660
F222        F  0.36478203  0.31301405  0.18564967    -0.19720
F223        F  0.28633805  0.27127438  0.16709470    -0.20040
F224        F  0.28263934  0.31874703  0.13747968    -0.22710
C225        C  0.19032070  0.26829582  0.00677766    -0.05550
C226        C  0.17780359  0.28485361  0.47439571     0.00380
C227        C  0.24051088  0.29951256  0.46418643    -0.08190
C228        C  0.30797186  0.29404705  0.48481167    -0.05570
C229        C  0.32024454  0.27763290  0.01708730     0.00370
C230        C  0.25846166  0.26137935  0.02631587    -0.08100
C231        C  0.25610609  0.23750316  0.05611587     0.62280
H232        H  0.14551812  0.26087472  0.01838029     0.12970
H233        H  0.35471760  0.30341945  0.47593581     0.13060
C234        C  0.24147176  0.32286600  0.43358193     0.62510
F235        F  0.20044154  0.21458766  0.04717649    -0.22660
F236        F  0.24475797  0.25511220  0.08547509    -0.19990
F237        F  0.31590329  0.21853197  0.06359190    -0.19660
F238        F  0.21387028  0.30736736  0.40245988    -0.19720
F239        F  0.30978069  0.33285755  0.43036192    -0.20040
F240        F  0.20548948  0.35188873  0.43821324    -0.22710
C241        C  0.04208780  0.38401559  0.44136741    -0.05550
C242        C  0.05259719  0.39463801  0.47601509     0.00380
C243        C  0.08050965  0.37239151  0.00223094    -0.08190
C244        C  0.09326342  0.33914722  0.49269995    -0.05570
C245        C  0.08311324  0.32693297  0.45753428     0.00370
C246        C  0.06214787  0.35196240  0.43075853    -0.08100
C247        C  0.06107810  0.35071694  0.39132044     0.62280
H248        H  0.02115214  0.40221226  0.42192343     0.12970
H249        H  0.10925363  0.32181226  0.01346816     0.12980
C250        C  0.09374574  0.38347323  0.04032629     0.62510
F251        F  0.99101720  0.34995451  0.37406957    -0.22660
F252        F  0.09705022  0.32503916  0.37905257    -0.19990
F253        F  0.09320756  0.37951362  0.38173323    -0.19660
F254        F  0.03060938  0.39439480  0.04946147    -0.19720
F255        F  0.14333644  0.40935889  0.04544692    -0.20040
F256        F  0.11975574  0.35780049  0.06222403    -0.22710
C257        C  0.00265740  0.02777164  0.34104954    -0.05550
C258        C  0.93303732  0.03894295  0.32660672     0.00380
C259        C  0.88636686  0.04445385  0.35187326    -0.08190
C260        C  0.90504965  0.03077705  0.38524069    -0.05570
C261        C  0.97133993  0.01646562  0.39728443     0.00370
C262        C  0.02212445  0.01554801  0.37501987    -0.08100
C263        C  0.09588765  0.50078726  0.38630040     0.62280
H264        H  0.04226020  0.02734112  0.32488984     0.12970
H265        H  0.86882209  0.03391141  0.40365721     0.12980
C266        C  0.82489412  0.06915529  0.35083533     0.62510
F267        F  0.13287276  0.49777389  0.35883725    -0.22660
F268        F  0.08972325  0.46912403  0.39932016    -0.19990
F269        F  0.13569389  0.02122930  0.41169490    -0.19660
F270        F  0.76636498  0.05380967  0.36051096    -0.19720
F271        F  0.80322525  0.08438697  0.31991961    -0.20040
F272        F  0.84672319  0.09448663  0.37503792    -0.22710
C273        C  0.09031695  0.44946047  0.11363607    -0.05550
C274        C  0.02509350  0.46330583  0.09853783     0.00380
C275        C  0.96976608  0.46462644  0.11824577    -0.08190
C276        C  0.98740032  0.45888105  0.15403292    -0.05570
C277        C  0.05504047  0.44738518  0.17099717     0.00370
C278        C  0.10103079  0.43635898  0.14745592    -0.08100
C279        C  0.15163223  0.40696666  0.15366012     0.62280
H280        H  0.13012555  0.44576088  0.09732845     0.12970
H281        H  0.94588520  0.46320356  0.16858163     0.12980
C282        C  0.89210874  0.47122096  0.10217239     0.62510
F283        F  0.20034442  0.41157061  0.18346538    -0.22660
F284        F  0.11262521  0.37797344  0.15557305    -0.19990
F285        F  0.18992620  0.40212378  0.12690141    -0.19660
F286        F  0.86724551  0.44578318  0.07832494    -0.19720
F287        F  0.88615278  0.50162522  0.08572456    -0.20040
F288        F  0.84777834  0.47196434  0.12676372    -0.22710
C289        C  0.40909698  0.38333564  0.04364833    -0.05550
C290        C  0.46762852  0.39047840  0.02788482     0.00380
C291        C  0.50249096  0.36312358  0.01469799    -0.08190
C292        C  0.47543428  0.33038708  0.01710320    -0.05570
C293        C  0.41927887  0.32147660  0.03540015     0.00370
C294        C  0.37955797  0.35070085  0.04475069    -0.08100
C295        C  0.30213459  0.35378464  0.05094252     0.62280
H296        H  0.38151176  0.40453674  0.05283372     0.12970
H297        H  0.49791393  0.31179272  0.00231401     0.12980
C298        C  0.56897691  0.36765033  0.49821885     0.62510
F299        F  0.26601530  0.37570706  0.02703508    -0.22660
F300        F  0.30274110  0.36723353  0.08405184    -0.19990
F301        F  0.26142320  0.32524898  0.04754785    -0.19660
F302        F  0.62388318  0.38096283  0.02290830    -0.19720
F303        F  0.55544676  0.38869747  0.47022566    -0.20040
F304        F  0.59275348  0.33769404  0.48603617    -0.22710
C305        C  0.57736098  0.48259880  0.13995060    -0.05550
C306        C  0.57570709  0.00801329  0.11592747     0.00380
C307        C  0.59465636  0.04076843  0.12866465    -0.08190
C308        C  0.61054444  0.04706080  0.16517862    -0.05570
C309        C  0.60067563  0.02280446  0.19035859     0.00370
C310        C  0.59610454  0.48868141  0.17644307    -0.08100
C311        C  0.62444604  0.45811269  0.19670782     0.62280
H312        H  0.56714206  0.45716332  0.12982519     0.12970
H313        H  0.62606953  0.07222206  0.17343771     0.12980
C314        C  0.59526795  0.06929995  0.10353394     0.62510
F315        F  0.65371177  0.43558707  0.17572803    -0.22660
F316        F  0.56996069  0.44155832  0.20858347    -0.19990
F317        F  0.67910061  0.46673674  0.22348296    -0.19660
F318        F  0.52774938  0.07280992  0.08389367    -0.19720
F319        F  0.64311533  0.06243071  0.08151223    -0.20040
F320        F  0.61479759  0.09959918  0.12067657    -0.22710
C321        C  0.37413750  0.43759200  0.36001302    -0.05550
C322        C  0.38540748  0.45935573  0.33300261     0.00380
C323        C  0.40995079  0.49213287  0.34690122    -0.08190
C324        C  0.44631479  0.49617581  0.38219772    -0.05570
C325        C  0.44076950  0.47205786  0.40735738     0.00370
C326        C  0.39667288  0.44400569  0.39614240    -0.08100
C327        C  0.37211485  0.42084700  0.42227116     0.62280
H328        H  0.34844582  0.41427866  0.35410197     0.12970
H329        H  0.47010615  0.02027811  0.39117029     0.12980
C330        C  0.37949672  0.52418146  0.33034950     0.62510
F331        F  0.32985047  0.39464720  0.40620264    -0.22660
F332        F  0.33227164  0.43866667  0.44269350    -0.19990
F333        F  0.43036747  0.40740395  0.44333389    -0.19660
F334        F  0.31931693  0.01781388  0.30548370    -0.19720
F335        F  0.43041213  0.54110522  0.31615153    -0.20040
F336        F  0.35824932  0.04513838  0.35534665    -0.22710
C337        C  0.00326857  0.20582372  0.07906268    -0.05550
C338        C  0.93086790  0.20982238  0.06301547     0.00380
C339        C  0.88773446  0.22879124  0.08336631    -0.08190
C340        C  0.91077690  0.23079747  0.11964802    -0.05570
C341        C  0.97858093  0.22046210  0.13622533     0.00370
C342        C  0.02741863  0.20922747  0.11520028    -0.08100
C343        C  0.10365701  0.19951136  0.13027680     0.62280
H344        H  0.04045196  0.19726149  0.06328472     0.12970
H345        H  0.87549823  0.24253609  0.13524374     0.12980
C346        C  0.82158233  0.25036415  0.07152140     0.62510
F347        F  0.13987491  0.18719292  0.10494688    -0.22660
F348        F  0.10314864  0.17466466  0.15444962    -0.19990
F349        F  0.14110914  0.22725648  0.14596384    -0.19660
F350        F  0.76378903  0.23694469  0.08364312    -0.19720
F351        F  0.80212202  0.25508676  0.03643583    -0.20040
F352        F  0.83457504  0.28218748  0.08633135    -0.22710
C353        C  0.94660078  0.25117382  0.00407856    -0.05550
C354        C  0.95948408  0.21628023  0.00440689     0.00380
C355        C  0.02177046  0.20646165  0.98996899    -0.08190
C356        C  0.05577157  0.23077517  0.47234375    -0.05570
C357        C  0.04226587  0.26567982  0.47185444     0.00370
C358        C  0.97982854  0.27522185  0.48590967    -0.08100
C359        C  0.93891898  0.30830639  0.48171294     0.62280
H360        H  0.90609072  0.26007912  0.01767265     0.12970
H361        H  0.09675788  0.22227752  0.45886893     0.12980
C362        C  0.05914881  0.17216861  0.99228801     0.62510
F363        F  0.86616591  0.30232400  0.47872314    -0.22660
F364        F  0.94529184  0.32519383  0.45218366    -0.19990
F365        F  0.95973328  0.32862288  0.01094410    -0.19660
F366        F  0.02636166  0.15051711  0.46628785    -0.19720
F367        F  0.06331293  0.15772655  0.02417476    -0.20040
F368        F  0.12955694  0.17508345  0.98778946    -0.22710
C369        C  0.95120277  0.13641689  0.05187651    -0.05550
C370        C  0.92252018  0.15512189  0.02175807     0.00380
C371        C  0.90329949  0.13540286  0.98970236    -0.08190
C372        C  0.91318146  0.10044770  0.48994364    -0.05570
C373        C  0.94852039  0.08408147  0.01888600     0.00370
C374        C  0.96739751  0.10199636  0.05063878    -0.08100
C375        C  0.00298540  0.08449984  0.08331965     0.62280
H376        H  0.96297821  0.14831220  0.07711624     0.12970
H377        H  0.89690162  0.08550984  0.46622134     0.12980
C378        C  0.87496825  0.14860539  0.45362952     0.62510
F379        F  0.01398418  0.10577636  0.11235770    -0.22660
F380        F  0.06854906  0.07229047  0.07869439    -0.19990
F381        F  0.96035303  0.05815973  0.08994246    -0.19660
F382        F  0.89906280  0.18024541  0.44909845    -0.19720
F383        F  0.80141227  0.14717967  0.44739651    -0.20040
F384        F  0.89851536  0.12924506  0.42821143    -0.22710
C385        C  0.57825391  0.23141648  0.41482836    -0.05550
C386        C  0.57320029  0.19681857  0.42209277     0.00380
C387        C  0.55121251  0.17364130  0.39257279    -0.08190
C388        C  0.53390471  0.18768566  0.35918698    -0.05570
C389        C  0.53746618  0.22196889  0.35348192     0.00370
C390        C  0.56198265  0.24435779  0.38143109    -0.08100
C391        C  0.56821222  0.28213232  0.37875066     0.62280
H392        H  0.59590407  0.24921289  0.43612834     0.12970
H393        H  0.51772787  0.17183848  0.33620008     0.12980
C394        C  0.55097369  0.13500512  0.39211286     0.62510
F395        F  0.63717485  0.29297984  0.39138750    -0.22660
F396        F  0.52415879  0.29675309  0.39927815    -0.19990
F397        F  0.55020537  0.29329451  0.34514939    -0.19660
F398        F  0.62043381  0.12368962  0.39792067    -0.19720
F399        F  0.51695229  0.12200813  0.36031314    -0.20040
F400        F  0.51375737  0.12050924  0.41492169    -0.22710
C401        C  0.56836711  0.23531178  0.00975158    -0.05550
C402        C  0.53782502  0.21621669  0.47920977     0.00380
C403        C  0.46376821  0.22537182  0.46589426    -0.08190
C404        C  0.42422121  0.24114947  0.48864236    -0.05570
C405        C  0.45313096  0.25962953  0.01891336     0.00370
C406        C  0.52974721  0.25725071  0.02891323    -0.08100
C407        C  0.57623930  0.27713121  0.05876988     0.62280
H408        H  0.62491345  0.23494576  0.01899309     0.12970
H409        H  0.36734989  0.23900184  0.48114940     0.12980
C410        C  0.41666761  0.22489341  0.42907924     0.62510
F411        F  0.61537370  0.25539868  0.08168681    -0.22660
F412        F  0.53905789  0.29769666  0.07784850    -0.19990
F413        F  0.62389085  0.29697698  0.04512868    -0.19660
F414        F  0.35264911  0.20856693  0.43002431    -0.19720
F415        F  0.44163689  0.21036763  0.40201441    -0.20040
F416        F  0.40153319  0.25775254  0.41984845    -0.22710
C417        C  0.62697666  0.12871945  0.47037208    -0.05550
C418        C  0.57151393  0.15247271  0.47081885     0.00380
C419        C  0.50941325  0.14005799  0.48338841    -0.08190
C420        C  0.51359123  0.10952697  0.50090130    -0.05570
C421        C  0.56361820  0.08527167  0.49597745     0.00370
C422        C  0.62391693  0.09553190  0.48182497    -0.08100
C423        C  0.68589334  0.07228812  0.47912809     0.62280
H424        H  0.67310113  0.13617118  0.45972250     0.12970
H425        H  0.46873696  0.10208474  0.51283139     0.12980
C426        C  0.43286438  0.14746772  0.46651392     0.62510
F427        F  0.74148457  0.08858005  0.46766529    -0.22660
F428        F  0.66323349  0.04625140  0.45569864    -0.19990
F429        F  0.71279855  0.05973388  0.01159902    -0.19660
F430        F  0.43044799  0.15909441  0.43369893    -0.19720
F431        F  0.40191764  0.16946514  0.48676082    -0.20040
F432        F  0.39042637  0.11870850  0.46197550    -0.22710
C433        C  0.69683161  0.18566809  0.01117334    -0.05550
C434        C  0.67288933  0.19668953  0.47668392     0.00380
C435        C  0.73102325  0.20789019  0.45940640    -0.08190
C436        C  0.80007573  0.21309805  0.47958696    -0.05570
C437        C  0.82500181  0.19713340  0.01128800     0.00370
C438        C  0.76943440  0.18224820  0.02714827    -0.08100
C439        C  0.77860929  0.16111771  0.05986851     0.62280
H440        H  0.65650173  0.17636775  0.02510969     0.12970
H441        H  0.83758035  0.22682471  0.46763773     0.12980
C442        C  0.73140428  0.21164320  0.42014582     0.62510
F443        F  0.73100055  0.17128062  0.08100075    -0.22660
F444        F  0.84473517  0.16266987  0.08031194    -0.19990
F445        F  0.76352084  0.12801372  0.04988726    -0.19660
F446        F  0.71035008  0.24316953  0.40982980    -0.19720
F447        F  0.69242421  0.18695860  0.40006421    -0.20040
F448        F  0.79889585  0.20869307  0.41195523    -0.22710
C449        C  0.58774582  0.19024357  0.96163815    -0.02260
C450        C  0.90906187  0.19440729  0.52479875    -0.02260
O451        O  0.48216528  0.04175009  0.00710115    -0.74190
O452        O  0.43647087  0.44930412  0.52257180    -0.74230
O453        O  0.48794915  0.00351880  0.56398202    -0.74280
O454        O  0.42572962  0.48889445  0.96521071    -0.74330
O455        O  0.53524673  0.47384983  0.95905697    -0.74260
O456        O  0.59889176  0.48919151  0.55933747    -0.74240
O457        O  0.54687791  0.43529260  0.51751680    -0.74220
O458        O  0.59164791  0.02659624  0.00172329    -0.74280
Ni459      Ni  0.45420252  0.49630463  0.01487450     1.25410
Ni460      Ni  0.57197401  0.48063460  0.50917279     1.25360
C461        C  0.54539476  0.04949838  0.00221429     0.87980
C462        C  0.48473195  0.42678152  0.52254913     0.87920
C463        C  0.55344273  0.99972685  0.57788658     0.87940
C464        C  0.46924875  0.47898955  0.94562792     0.88120
O465        O  0.08308245  0.45181534  0.99048572    -0.74190
O466        O  0.03367465  0.04154296  0.51374607    -0.74230
O467        O  0.06982548  0.48503096  0.54989979    -0.74280
O468        O  0.04608473  0.00836260  0.95342245    -0.74330
O469        O  0.93166464  0.49298371  0.94619460    -0.74260
O470        O  0.95517377  0.47007059  0.54188378    -0.74240
O471        O  0.91868887  0.02650358  0.50572990    -0.74220
O472        O  0.96809578  0.43670189  0.98281990    -0.74280
Ni473      Ni  0.06234412  0.49724461  0.50209994     1.25410
Ni474      Ni  0.93940923  0.48103643  0.99388382     1.25360
C475        C  0.03379054  0.42941003  0.98367513     0.87980
C476        C  0.96809248  0.04878876  0.51349675     0.87920
C477        C  0.01600230  0.47350923  0.56171035     0.87940
C478        C  0.98451654  0.00488867  0.93393324     0.88120
C479        C  0.40024158  0.28157559  0.53788449    -0.02260
C480        C  0.09721625  0.28803246  0.95439825    -0.02260
C481        C  0.07008870  0.44377037  0.71240375    -0.02260
C482        C  0.37788221  0.44789116  0.79160988    -0.02260
O483        O  0.56117095  0.20246294  0.74415056    -0.74190
O484        O  0.51412561  0.29551737  0.76091839    -0.74230
O485        O  0.56358103  0.24281335  0.80102058    -0.74280
O486        O  0.51430804  0.25585333  0.70338843    -0.74330
O487        O  0.40089420  0.24197441  0.70424903    -0.74260
O488        O  0.45136522  0.22664059  0.80207764    -0.74240
O489        O  0.40215732  0.28001799  0.76280891    -0.74220
O490        O  0.44788222  0.18792087  0.74398354    -0.74280
Ni491      Ni  0.54222004  0.24974167  0.75222160     1.25410
Ni492      Ni  0.42155481  0.23361495  0.75326772     1.25360
C493        C  0.51213098  0.17970583  0.74191505     0.87980
C494        C  0.45043885  0.30293324  0.76518914     0.87920
C495        C  0.51599459  0.23195498  0.81737405     0.87940
C496        C  0.44965095  0.25190576  0.68789162     0.88120
O497        O  0.94870963  0.19693336  0.74999573    -0.74190
O498        O  0.97447153  0.28813822  0.72864369    -0.74230
O499        O  0.94336868  0.23143843  0.69067492    -0.74280
O500        O  0.97543867  0.25367593  0.78695204    -0.74330
O501        O  0.09162842  0.24526657  0.79023621    -0.74260
O502        O  0.05903394  0.22292994  0.69219464    -0.74240
O503        O  0.09015210  0.27884362  0.73091339    -0.74220
O504        O  0.06533608  0.18859663  0.75221106    -0.74280
Ni505      Ni  0.95626522  0.24278470  0.73878053     1.25410
Ni506      Ni  0.08075200  0.23351711  0.74138963     1.25360
C507        C  0.00401252  0.17850191  0.75654312     0.87980
C508        C  0.03754242  0.29864463  0.72690320     0.87920
C509        C  0.99518422  0.22466729  0.67495405     0.87940
C510        C  0.03806257  0.25272145  0.80488663     0.88120
C511        C  0.59675421  0.03397046  0.73029452    -0.02260
C512        C  0.91904173  0.04692263  0.78569185    -0.02260
C513        C  0.71827269  0.06394787  0.73831373    -0.05550
C514        C  0.68072486  0.03580341  0.74853298     0.00380
C515        C  0.72674169  0.01502529  0.77331806    -0.08190
C516        C  0.80074662  0.01799461  0.77603232    -0.05570
C517        C  0.83609138  0.04771022  0.77032300     0.00370
C518        C  0.79103878  0.07254520  0.75107714    -0.08100
C519        C  0.81243110  0.10849250  0.74409303     0.62280
H520        H  0.68758648  0.08207977  0.72256439     0.12970
H521        H  0.83192113  0.99817744  0.78921942     0.12980
C522        C  0.71119904  0.99396482  0.80337509     0.62510
F523        F  0.76329364  0.12355332  0.71868348    -0.22660
F524        F  0.87562198  0.10979626  0.73226428    -0.19990
F525        F  0.81623581  0.12807939  0.77393080    -0.19660
F526        F  0.71270147  0.46043004  0.79373683    -0.19720
F527        F  0.65032663  0.00370752  0.81495160    -0.20040
F528        F  0.76397100  0.99737767  0.83270763    -0.22710
C529        C  0.03067365  0.11874305  0.75564948    -0.05550
C530        C  0.99772769  0.14529994  0.76999600     0.00380
C531        C  0.96527452  0.13975955  0.79906174    -0.08190
C532        C  0.94780659  0.10686262  0.80540831    -0.05570
C533        C  0.96374114  0.07966308  0.78451223     0.00370
C534        C  0.02212750  0.08589156  0.76624852    -0.08100
C535        C  0.08460897  0.06343412  0.76154445     0.62280
H536        H  0.06638777  0.12389629  0.73752858     0.12970
H537        H  0.91917354  0.10292613  0.82607532     0.12980
C538        C  0.95013070  0.16790903  0.82344253     0.62510
F539        F  0.14737292  0.07910764  0.77760925    -0.22660
F540        F  0.08755706  0.05969059  0.72646937    -0.19990
F541        F  0.08444402  0.03238128  0.77586158    -0.19660
F542        F  0.89787533  0.18856722  0.80653125    -0.19720
F543        F  0.01217384  0.18612871  0.83468113    -0.20040
F544        F  0.92706995  0.15595095  0.85268176    -0.22710
C545        C  0.56473155  0.12654918  0.76756280    -0.05550
C546        C  0.53006740  0.14318141  0.73831726     0.00380
C547        C  0.50867980  0.12409653  0.70743698    -0.08190
C548        C  0.52917625  0.09006045  0.70598028    -0.05570
C549        C  0.56710337  0.07209563  0.73479030     0.00370
C550        C  0.57938418  0.09153242  0.76728155    -0.08100
C551        C  0.60486909  0.07649606  0.80261578     0.62280
H552        H  0.57824794  0.14145631  0.79139214     0.12970
H553        H  0.51241036  0.07774594  0.68140084     0.12980
C554        C  0.46436046  0.13995504  0.67580132     0.62510
F555        F  0.60426914  0.09911074  0.82957697    -0.22660
F556        F  0.67408473  0.06695888  0.80619238    -0.19990
F557        F  0.56150112  0.04991163  0.80736294    -0.19660
F558        F  0.50089561  0.16724419  0.66635122    -0.19720
F559        F  0.39988745  0.15040337  0.68379818    -0.20040
F560        F  0.44987541  0.11796929  0.64740190    -0.22710
C561        C  0.41791011  0.00027866  0.75767763    -0.05550
C562        C  0.43639124  0.47136929  0.77794799     0.00380
C563        C  0.51154433  0.46418111  0.78360154    -0.08190
C564        C  0.55700060  0.48174909  0.76450507    -0.05570
C565        C  0.53859668  0.00990414  0.74383279     0.00370
C566        C  0.46277443  0.01510102  0.73654713    -0.08100
C567        C  0.42234414  0.02891389  0.70257356     0.62280
H568        H  0.36530214  0.01056786  0.75516718     0.12970
H569        H  0.60709108  0.47134713  0.76407060     0.12980
C570        C  0.54687157  0.43752673  0.80860548     0.62510
F571        F  0.36301778  0.00938615  0.69018491    -0.22660
F572        F  0.46085597  0.02753932  0.67602536    -0.19990
F573        F  0.39935075  0.06105703  0.70791990    -0.19660
F574        F  0.54754829  0.40700146  0.79133419    -0.19720
F575        F  0.51508661  0.43478979  0.83732523    -0.20040
F576        F  0.61627931  0.44531894  0.82256352    -0.22710
C577        C  0.41490962  0.38578498  0.80936123    -0.05550
C578        C  0.39912138  0.40949112  0.78241721     0.00380
C579        C  0.40940004  0.39568517  0.74831041    -0.08190
C580        C  0.43091317  0.36159533  0.74550341    -0.05570
C581        C  0.43191375  0.33862524  0.77201418     0.00370
C582        C  0.41816094  0.35098542  0.80412368    -0.08100
C583        C  0.40737570  0.32978503  0.83463436     0.62280
H584        H  0.43021889  0.39306311  0.83585476     0.12970
H585        H  0.44462193  0.35167615  0.72160273     0.12980
C586        C  0.39934339  0.41378516  0.71350750     0.62510
F587        F  0.33949169  0.33506268  0.84155991    -0.22660
F588        F  0.45585161  0.33995610  0.86371927    -0.19990
F589        F  0.41417770  0.29585301  0.82892432    -0.19660
F590        F  0.43125488  0.44469077  0.71583818    -0.19720
F591        F  0.32812809  0.41627712  0.70052434    -0.20040
F592        F  0.42820106  0.39643395  0.68821189    -0.22710
C593        C  0.95800218  0.48567369  0.77826703    -0.05550
C594        C  0.94544103  0.01757671  0.76348507     0.00380
C595        C  0.95579004  0.01951284  0.72822000    -0.08190
C596        C  0.00531271  0.49782942  0.71781389    -0.05570
C597        C  0.01946546  0.46574290  0.73152743     0.00370
C598        C  0.99155869  0.45919959  0.76323902    -0.08100
C599        C  0.99289457  0.42747663  0.78523580     0.62280
H600        H  0.94037610  0.48067202  0.80251758     0.12970
H601        H  0.02845624  0.50563829  0.69613419     0.12980
C602        C  0.91605999  0.04145855  0.69961433     0.62510
F603        F  0.92331677  0.41672753  0.78441963    -0.22660
F604        F  0.02267011  0.43548628  0.81956663    -0.19990
F605        F  0.03007848  0.40065378  0.77610260    -0.19660
F606        F  0.94394254  0.07335794  0.70163730    -0.19720
F607        F  0.84411068  0.04172484  0.70023453    -0.20040
F608        F  0.92178803  0.52886816  0.66683411    -0.22710
C609        C  0.11807009  0.38544444  0.72815284    -0.05550
C610        C  0.05743230  0.40537900  0.71588000     0.00380
C611        C  0.98975327  0.38760473  0.70537782    -0.08190
C612        C  0.98965011  0.35256030  0.70669074    -0.05570
C613        C  0.04933262  0.33430485  0.72095613     0.00370
C614        C  0.11592692  0.35072326  0.73086700    -0.08100
C615        C  0.18546712  0.33229631  0.74389367     0.62280
H616        H  0.16978125  0.39662599  0.73530512     0.12970
H617        H  0.94071229  0.33871594  0.69697769     0.12980
C618        C  0.91483406  0.40175352  0.69290722     0.62510
F619        F  0.24403415  0.35366398  0.75138187    -0.22660
F620        F  0.19928081  0.30979244  0.71847466    -0.19990
F621        F  0.18036528  0.31560326  0.77411570    -0.19660
F622        F  0.90183401  0.40317749  0.65695974    -0.19720
F623        F  0.90285229  0.43226613  0.70738627    -0.20040
F624        F  0.86281202  0.38099580  0.70213375    -0.22710
C625        C  0.16336733  0.45011116  0.76841316    -0.05550
C626        C  0.14745321  0.45626423  0.73251336     0.00380
C627        C  0.20630750  0.47011175  0.71948955    -0.08190
C628        C  0.27687365  0.46492515  0.73818283    -0.05570
C629        C  0.29479522  0.45160030  0.77231404     0.00370
C630        C  0.23186769  0.44122046  0.78582665    -0.08100
C631        C  0.22753789  0.41479677  0.81305588     0.62280
H632        H  0.12015509  0.44538460  0.78162970     0.12970
H633        H  0.31799061  0.47000990  0.72381381     0.12980
C634        C  0.20086852  0.49383728  0.68918118     0.62510
F635        F  0.16304657  0.39749966  0.80709433    -0.22660
F636        F  0.23263630  0.42985206  0.84565924    -0.19990
F637        F  0.27654725  0.39015949  0.81141382    -0.19660
F638        F  0.13246831  0.50289927  0.67545697    -0.19720
F639        F  0.23218170  0.47969136  0.66298535    -0.20040
F640        F  0.23677550  0.52328752  0.70096233    -0.22710
C641        C  0.01412203  0.27757533  0.89740390    -0.05550
C642        C  0.08392609  0.27294211  0.91638979     0.00380
C643        C  0.13016257  0.25245163  0.89916606    -0.08190
C644        C  0.11358271  0.24885542  0.86270309    -0.05570
C645        C  0.04859462  0.25881114  0.84324175     0.00370
C646        C  0.99547085  0.27163673  0.86125990    -0.08100
C647        C  0.92086247  0.28121266  0.84306377     0.62280
H648        H  0.97486222  0.28834974  0.91081629     0.12970
H649        H  0.15154567  0.23627448  0.84923323     0.12980
C650        C  0.19585765  0.23210533  0.91425074     0.62510
F651        F  0.88086320  0.29543195  0.86590781    -0.22660
F652        F  0.88405813  0.25306521  0.82811768    -0.19990
F653        F  0.92564260  0.30444483  0.81771294    -0.19660
F654        F  0.21046348  0.22878725  0.94968817    -0.19720
F655        F  0.25455565  0.24615824  0.90357426    -0.20040
F656        F  0.18710362  0.19968114  0.90058176    -0.22710
C657        C  0.47138466  0.24094115  0.62873460    -0.05550
C658        C  0.43276739  0.25827994  0.65035137     0.00380
C659        C  0.37999985  0.28074981  0.63561911    -0.08190
C660        C  0.37583410  0.28846928  0.60036657    -0.05570
C661        C  0.40915629  0.26952052  0.57693598     0.00370
C662        C  0.45087619  0.24127932  0.59237076    -0.08100
C663        C  0.46361191  0.20715388  0.57568449     0.62280
H664        H  0.51027421  0.22285652  0.64032777     0.12970
H665        H  0.34270416  0.30840609  0.59115102     0.12980
C666        C  0.32800247  0.29626604  0.65662726     0.62510
F667        F  0.44183194  0.18185500  0.59537386    -0.22660
F668        F  0.53529122  0.20253004  0.57527370    -0.19990
F669        F  0.42536053  0.20195417  0.54288402    -0.19660
F670        F  0.36477923  0.31301294  0.68564731    -0.19720
F671        F  0.28633595  0.27127284  0.66709288    -0.20040
F672        F  0.28263658  0.31874509  0.63747718    -0.22710
C673        C  0.19032161  0.26829398  0.50677659    -0.05550
C674        C  0.17780277  0.28485534  0.97439674     0.00380
C675        C  0.24050996  0.29951453  0.96418763    -0.08190
C676        C  0.30797083  0.29404969  0.98481330    -0.05570
C677        C  0.32024550  0.27763046  0.51708576     0.00370
C678        C  0.25846258  0.26137721  0.52631456    -0.08100
C679        C  0.25610682  0.23750079  0.55611435     0.62280
H680        H  0.14551920  0.26087296  0.51837941     0.12970
H681        H  0.35471649  0.30342252  0.97593771     0.13060
C682        C  0.24147069  0.32286754  0.93358280     0.62510
F683        F  0.20044379  0.21458464  0.54717411    -0.22660
F684        F  0.24475576  0.25510950  0.58547326    -0.19990
F685        F  0.31590497  0.21853035  0.56359129    -0.19660
F686        F  0.21386857  0.30736865  0.90246099    -0.19720
F687        F  0.30977963  0.33285864  0.93036238    -0.20040
F688        F  0.20548890  0.35189048  0.93821389    -0.22710
C689        C  0.04208693  0.38401699  0.94136810    -0.05550
C690        C  0.05259559  0.39463931  0.97601582     0.00380
C691        C  0.08051147  0.37239015  0.50223016    -0.08190
C692        C  0.09326211  0.33914865  0.99270073    -0.05570
C693        C  0.08311231  0.32693443  0.95753503     0.00370
C694        C  0.06214708  0.35196381  0.93075925    -0.08100
C695        C  0.06107691  0.35071822  0.89132112     0.62280
H696        H  0.02115141  0.40221367  0.92192411     0.12970
H697        H  0.10925512  0.32181081  0.51346735     0.12980
C698        C  0.09374863  0.38347194  0.54032547     0.62510
F699        F  0.99101589  0.34995571  0.87407040    -0.22660
F700        F  0.09704889  0.32504041  0.87905319    -0.19990
F701        F  0.09320616  0.37951489  0.88173373    -0.19660
F702        F  0.03061285  0.39439388  0.54946098    -0.19720
F703        F  0.14333995  0.40935734  0.54544572    -0.20040
F704        F  0.11975852  0.35779916  0.56222317    -0.22710
C705        C  0.00265386  0.02777131  0.84104895    -0.05550
C706        C  0.93303409  0.03894276  0.82660587     0.00380
C707        C  0.88636322  0.04445394  0.85187223    -0.08190
C708        C  0.90504584  0.03077753  0.88523987    -0.05570
C709        C  0.97133602  0.01646614  0.89728389     0.00370
C710        C  0.02212067  0.01554811  0.87501943    -0.08100
C711        C  0.09588292  0.50078521  0.88630020     0.62280
H712        H  0.04225681  0.02734046  0.82488942     0.12970
H713        H  0.86881816  0.03391211  0.90365630     0.12980
C714        C  0.82488956  0.06915500  0.85083382     0.62510
F715        F  0.13286750  0.49777072  0.85883695    -0.22660
F716        F  0.08971723  0.46912237  0.89932065    -0.19990
F717        F  0.13569005  0.02122992  0.91169444    -0.19660
F718        F  0.76636094  0.05380905  0.86050963    -0.19720
F719        F  0.80321998  0.08438621  0.81991785    -0.20040
F720        F  0.84671767  0.09448674  0.87503612    -0.22710
C721        C  0.09031578  0.44945704  0.61363536    -0.05550
C722        C  0.02509458  0.46330462  0.59853728     0.00380
C723        C  0.96976798  0.46462828  0.61824548    -0.08190
C724        C  0.98740205  0.45888373  0.65403274    -0.05570
C725        C  0.05503978  0.44738478  0.67099671     0.00370
C726        C  0.10102834  0.43635634  0.64745553    -0.08100
C727        C  0.15162811  0.40696346  0.65366092     0.62280
H728        H  0.13012339  0.44575558  0.59732756     0.12970
H729        H  0.94588725  0.46320757  0.66858147     0.12980
C730        C  0.89211134  0.47122453  0.60217212     0.62510
F731        F  0.20034078  0.41156798  0.68346604    -0.22660
F732        F  0.11261953  0.37797097  0.65557515    -0.19990
F733        F  0.18992151  0.40211872  0.62690227    -0.19660
F734        F  0.86724458  0.44578634  0.57832583    -0.19720
F735        F  0.88615879  0.50162806  0.58572288    -0.20040
F736        F  0.84778151  0.47197063  0.62676368    -0.22710
C737        C  0.40909859  0.38333332  0.54364809    -0.05550
C738        C  0.46762874  0.39047620  0.52788368     0.00380
C739        C  0.50248940  0.36312156  0.51469541    -0.08190
C740        C  0.47543334  0.33038498  0.51710092    -0.05570
C741        C  0.41927897  0.32147446  0.53539848     0.00370
C742        C  0.37955868  0.35069866  0.54474960    -0.08100
C743        C  0.30213488  0.35378275  0.55094067     0.62280
H744        H  0.38151443  0.40453434  0.55283438     0.12970
H745        H  0.49791236  0.31179057  0.50231149     0.12980
C746        C  0.56898139  0.36765199  0.99822357     0.62510
F747        F  0.26601744  0.37570611  0.52703368    -0.22660
F748        F  0.30274027  0.36723067  0.58405029    -0.19990
F749        F  0.26142236  0.32524744  0.54754443    -0.19660
F750        F  0.62388151  0.38096053  0.52290246    -0.19720
F751        F  0.55545489  0.38869837  0.97022965    -0.20040
F752        F  0.59276013  0.33769545  0.98604259    -0.22710
C753        C  0.57735527  0.48259739  0.63995028    -0.05550
C754        C  0.57570704  0.00801151  0.61592700     0.00380
C755        C  0.59465945  0.04076640  0.62866406    -0.08190
C756        C  0.61054617  0.04705908  0.66517806    -0.05570
C757        C  0.60067371  0.02280340  0.69035806     0.00370
C758        C  0.59609883  0.48868006  0.67644273    -0.08100
C759        C  0.62443969  0.45811121  0.69670743     0.62280
H760        H  0.56713326  0.45716202  0.62982504     0.12970
H761        H  0.62607317  0.07222014  0.67343708     0.12980
C762        C  0.59527542  0.06929742  0.60353316     0.62510
F763        F  0.65370335  0.43558501  0.67572743    -0.22660
F764        F  0.56995439  0.44155751  0.70858379    -0.19990
F765        F  0.67909569  0.46673506  0.72348201    -0.19660
F766        F  0.52775798  0.07280869  0.58389214    -0.19720
F767        F  0.64312339  0.06242656  0.58151218    -0.20040
F768        F  0.61480751  0.09959649  0.62067563    -0.22710
C769        C  0.37414513  0.43759139  0.86001438    -0.05550
C770        C  0.38540741  0.45935613  0.83300332     0.00380
C771        C  0.40994530  0.49213420  0.84690161    -0.08190
C772        C  0.44630958  0.49617844  0.88219802    -0.05570
C773        C  0.44077058  0.47205992  0.90735799     0.00370
C774        C  0.39667986  0.44400589  0.89614356    -0.08100
C775        C  0.37212549  0.42084658  0.92227280     0.62280
H776        H  0.34845326  0.41427795  0.85410421     0.12970
H777        H  0.47009776  0.02028133  0.89117018     0.12980
C778        C  0.37948827  0.52418196  0.83034914     0.62510
F779        F  0.32986546  0.39464515  0.90620490    -0.22660
F780        F  0.33227929  0.43866502  0.94269467    -0.19990
F781        F  0.43038026  0.40740583  0.94333591    -0.19660
F782        F  0.31931076  0.01781307  0.80548287    -0.19720
F783        F  0.43040287  0.54110697  0.81615172    -0.20040
F784        F  0.35823856  0.04513837  0.85534572    -0.22710
C785        C  0.00327134  0.20582293  0.57906375    -0.05550
C786        C  0.93087065  0.20982114  0.56301633     0.00380
C787        C  0.88773663  0.22878999  0.58336692    -0.08190
C788        C  0.91077881  0.23079670  0.61964865    -0.05570
C789        C  0.97858319  0.22046204  0.63622622     0.00370
C790        C  0.02742127  0.20922740  0.61520135    -0.08100
C791        C  0.10366006  0.19951211  0.63027807     0.62280
H792        H  0.04045500  0.19726068  0.56328596     0.12970
H793        H  0.87549961  0.24253524  0.63524414     0.12980
C794        C  0.82158418  0.25036259  0.57152164     0.62510
F795        F  0.13987875  0.18719397  0.60494832    -0.22660
F796        F  0.10315269  0.17466551  0.65445108    -0.19990
F797        F  0.14111080  0.22725766  0.64596496    -0.19660
F798        F  0.76379086  0.23694295  0.58364318    -0.19720
F799        F  0.80212439  0.25508500  0.53643601    -0.20040
F800        F  0.83457603  0.28218603  0.58633142    -0.22710
C801        C  0.94660347  0.25117245  0.50407913    -0.05550
C802        C  0.95948706  0.21627887  0.50440764     0.00380
C803        C  0.02177282  0.20646030  0.48996925    -0.08190
C804        C  0.05577080  0.23077674  0.97234449    -0.05570
C805        C  0.04226493  0.26568137  0.97185511     0.00370
C806        C  0.97982674  0.27522332  0.98590967    -0.08100
C807        C  0.93891754  0.30830799  0.98171303     0.62280
H808        H  0.90609380  0.26007782  0.51767345     0.12970
H809        H  0.09675814  0.22227926  0.95887026     0.12980
C810        C  0.05915233  0.17216756  0.49228888     0.62510
F811        F  0.86616437  0.30232584  0.97872316    -0.22660
F812        F  0.94529066  0.32519546  0.95218381    -0.19990
F813        F  0.95973461  0.32862140  0.51094394    -0.19660
F814        F  0.02635766  0.15051886  0.96628640    -0.19720
F815        F  0.06331741  0.15772613  0.52417600    -0.20040
F816        F  0.12956015  0.17508279  0.48778996    -0.22710
C817        C  0.95120754  0.13641554  0.55187749    -0.05550
C818        C  0.92252422  0.15512041  0.52175908     0.00380
C819        C  0.90330286  0.13540117  0.48970356    -0.08190
C820        C  0.91317917  0.10044946  0.98994224    -0.05570
C821        C  0.94852376  0.08407979  0.51888721     0.00370
C822        C  0.96740229  0.10199495  0.55063981    -0.08100
C823        C  0.00299133  0.08449867  0.58332060     0.62280
H824        H  0.96298341  0.14831099  0.57711715     0.12970
H825        H  0.89690026  0.08551163  0.96621985     0.12980
C826        C  0.87496358  0.14860733  0.95362853     0.62510
F827        F  0.01399184  0.10577550  0.61235841    -0.22660
F828        F  0.06855428  0.07228890  0.57869473    -0.19990
F829        F  0.96035901  0.05815891  0.58994425    -0.19660
F830        F  0.89905938  0.18024712  0.94909723    -0.19720
F831        F  0.80140759  0.14718248  0.94739657    -0.20040
F832        F  0.89850769  0.12924669  0.92820978    -0.22710
C833        C  0.57824917  0.23141888  0.91482761    -0.05550
C834        C  0.57319624  0.19682098  0.92209242     0.00380
C835        C  0.55120786  0.17364348  0.89257269    -0.08190
C836        C  0.53389825  0.18768756  0.85918684    -0.05570
C837        C  0.53745897  0.22197069  0.85348136     0.00370
C838        C  0.56197631  0.24435992  0.88143015    -0.08100
C839        C  0.56820579  0.28213444  0.87874892     0.62280
H840        H  0.59589967  0.24921547  0.93612737     0.12970
H841        H  0.51772099  0.17184019  0.83620011     0.12980
C842        C  0.55097031  0.13500731  0.89211292     0.62510
F843        F  0.63716980  0.29298169  0.89138285    -0.22660
F844        F  0.52415682  0.29675604  0.89927822    -0.19990
F845        F  0.55019328  0.29329621  0.84514774    -0.19660
F846        F  0.62043080  0.12369230  0.89792044    -0.19720
F847        F  0.51694882  0.12201008  0.86031336    -0.20040
F848        F  0.51375485  0.12051115  0.91492194    -0.22710
C849        C  0.56836902  0.23530970  0.50975123    -0.05550
C850        C  0.53782258  0.21621913  0.97920992     0.00380
C851        C  0.46376572  0.22537434  0.96589484    -0.08190
C852        C  0.42421936  0.24115202  0.98864321    -0.05570
C853        C  0.45313227  0.25962739  0.51891231     0.00370
C854        C  0.52974858  0.25724898  0.52891229    -0.08100
C855        C  0.57624015  0.27713022  0.55876848     0.62280
H856        H  0.62491532  0.23494366  0.51899297     0.12970
H857        H  0.36734800  0.23900454  0.98115042     0.12980
C858        C  0.41666418  0.22489573  0.92908008     0.62510
F859        F  0.61537570  0.25539831  0.58168572    -0.22660
F860        F  0.53905813  0.29769558  0.57784689    -0.19990
F861        F  0.62389056  0.29697619  0.54512671    -0.19660
F862        F  0.35264636  0.20856892  0.93002573    -0.19720
F863        F  0.44163270  0.21037010  0.90201497    -0.20040
F864        F  0.40152887  0.25775481  0.91984934    -0.22710
C865        C  0.62697401  0.12872190  0.97037204    -0.05550
C866        C  0.57151106  0.15247510  0.97081871     0.00380
C867        C  0.50941053  0.14006027  0.98338833    -0.08190
C868        C  0.51358874  0.10952924  0.00090128    -0.05570
C869        C  0.56361638  0.08527411  0.99597783     0.00370
C870        C  0.62391504  0.09553449  0.98182542    -0.08100
C871        C  0.68589231  0.07229102  0.97912926     0.62280
H872        H  0.67309824  0.13617362  0.95972227     0.12970
H873        H  0.46873443  0.10208690  0.01283128     0.12980
C874        C  0.43286163  0.14746995  0.96651389     0.62510
F875        F  0.74148369  0.08858318  0.96766685    -0.22660
F876        F  0.66323386  0.04625407  0.95569989    -0.19990
F877        F  0.71280031  0.05973065  0.51159761    -0.19660
F878        F  0.43044516  0.15909655  0.93369884    -0.19720
F879        F  0.40191498  0.16946742  0.98676078    -0.20040
F880        F  0.39042364  0.11871073  0.96197558    -0.22710
C881        C  0.69683471  0.18566580  0.51117385    -0.05550
C882        C  0.67288616  0.19669196  0.97668347     0.00380
C883        C  0.73101991  0.20789266  0.95940592    -0.08190
C884        C  0.80007267  0.21310009  0.97958636    -0.05570
C885        C  0.82500499  0.19713156  0.51128870     0.00370
C886        C  0.76943761  0.18224618  0.52714889    -0.08100
C887        C  0.77861281  0.16111581  0.55986921     0.62280
H888        H  0.65650483  0.17636538  0.52511015     0.12970
H889        H  0.83757750  0.22682657  0.96763711     0.12980
C890        C  0.73140025  0.21164626  0.92014539     0.62510
F891        F  0.73100419  0.17127877  0.58100149    -0.22660
F892        F  0.84473887  0.16266807  0.58031250    -0.19990
F893        F  0.76352443  0.12801178  0.54988809    -0.19660
F894        F  0.71034570  0.24317274  0.90983003    -0.19720
F895        F  0.69241985  0.18696190  0.90006353    -0.20040
F896        F  0.79889166  0.20869629  0.91195449    -0.22710
C897        C  0.58775033  0.69024116  0.46163655    -0.02260
C898        C  0.90905825  0.69440925  0.02479955    -0.02260
O899        O  0.48217329  0.54174635  0.50709911    -0.74190
O900        O  0.43645893  0.94930714  0.02256831    -0.74230
O901        O  0.48795991  0.50352233  0.06398336    -0.74280
O902        O  0.42572113  0.98889605  0.46520879    -0.74330
O903        O  0.53523715  0.97384965  0.45905496    -0.74260
O904        O  0.59888087  0.98919307  0.05933703    -0.74240
O905        O  0.54686657  0.93529570  0.01751470    -0.74220
O906        O  0.59165686  0.52659305  0.50172238    -0.74280
Ni907      Ni  0.45419331  0.99630373  0.51487277     1.25410
Ni908      Ni  0.57196389  0.98063776  0.00917219     1.25360
C909        C  0.54540281  0.54949496  0.50221251     0.87980
C910        C  0.48471998  0.92678446  0.02254586     0.87920
C911        C  0.55345380  0.49973076  0.07788777     0.87940
C912        C  0.46923959  0.97899062  0.44562596     0.88120
O913        O  0.08307513  0.95181243  0.49047613    -0.74190
O914        O  0.03367496  0.54154575  0.01375336    -0.74230
O915        O  0.06981765  0.98503202  0.04989032    -0.74280
O916        O  0.04609896  0.50836330  0.45343154    -0.74330
O917        O  0.93165710  0.99298241  0.44618769    -0.74260
O918        O  0.95516549  0.97007209  0.04187624    -0.74240
O919        O  0.91868982  0.52650499  0.00573564    -0.74220
O920        O  0.96808793  0.93669998  0.48281138    -0.74280
Ni921      Ni  0.06233347  0.99724473  0.00209062     1.25410
Ni922      Ni  0.93940416  0.98103481  0.49387636     1.25360
C923        C  0.03378237  0.92940749  0.48366629     0.87980
C924        C  0.96809165  0.54879101  0.01350180     0.87920
C925        C  0.01599479  0.97351136  0.06170173     0.87940
C926        C  0.98453189  0.50488953  0.43394113     0.88120
C927        C  0.40023830  0.78157699  0.03788338    -0.02260
C928        C  0.09721475  0.78802941  0.45439575    -0.02260
C929        C  0.07008314  0.94377030  0.21239308    -0.02260
C930        C  0.37786908  0.94789107  0.29160920    -0.02260
O931        O  0.56117055  0.70246424  0.24414923    -0.74190
O932        O  0.51412170  0.79551783  0.26091731    -0.74230
O933        O  0.56357915  0.74281364  0.30101917    -0.74280
O934        O  0.51430476  0.75585363  0.20338697    -0.74330
O935        O  0.40089126  0.74197407  0.20424797    -0.74260
O936        O  0.45136441  0.72663917  0.30207627    -0.74240
O937        O  0.40215440  0.78001741  0.26280843    -0.74220
O938        O  0.44788219  0.68792101  0.24398144    -0.74280
Ni939      Ni  0.54221756  0.74974240  0.25222025     1.25410
Ni940      Ni  0.42155308  0.73361446  0.25326651     1.25360
C941        C  0.51213145  0.67970675  0.24191315     0.87980
C942        C  0.45043513  0.80293314  0.26518878     0.87920
C943        C  0.51599383  0.73195369  0.31737249     0.87940
C944        C  0.44964785  0.75190497  0.18789029     0.88120
O945        O  0.94872357  0.69693142  0.24999309    -0.74190
O946        O  0.97448117  0.78813699  0.22864532    -0.74230
O947        O  0.94338042  0.73143869  0.19067436    -0.74280
O948        O  0.97545018  0.75367259  0.28695106    -0.74330
O949        O  0.09164049  0.74526482  0.29023534    -0.74260
O950        O  0.05904611  0.72293209  0.19219291    -0.74240
O951        O  0.09016248  0.77884450  0.23091456    -0.74220
O952        O  0.06535045  0.68859586  0.25220789    -0.74280
Ni953      Ni  0.95627711  0.74278304  0.23877988     1.25410
Ni954      Ni  0.08076452  0.73351721  0.24138841     1.25360
C955        C  0.00402730  0.67850058  0.25654001     0.87980
C956        C  0.03755135  0.79864469  0.22690551     0.87920
C957        C  0.99519570  0.72466909  0.17495296     0.87940
C958        C  0.03807389  0.75271884  0.30488555     0.88120
C959        C  0.59676828  0.53397323  0.23029596    -0.02260
C960        C  0.91905312  0.54692575  0.28569953    -0.02260
C961        C  0.71828852  0.56394806  0.23831354    -0.05550
C962        C  0.68073862  0.53580543  0.24853510     0.00380
C963        C  0.72675236  0.51503090  0.27332558    -0.08190
C964        C  0.80075788  0.51800025  0.27604324    -0.05570
C965        C  0.83610251  0.54771518  0.27033233     0.00370
C966        C  0.79105018  0.57254958  0.25108456    -0.08100
C967        C  0.81243660  0.60849970  0.24410660     0.62280
H968        H  0.68760473  0.58207527  0.22255645     0.12970
H969        H  0.83193297  0.49818399  0.28923291     0.12980
C970        C  0.71120403  0.49397080  0.30338108     0.62510
F971        F  0.76328902  0.62356560  0.21870552    -0.22660
F972        F  0.87562022  0.60980825  0.23227158    -0.19990
F973        F  0.81625326  0.62808063  0.27394903    -0.19660
F974        F  0.71268838  0.96042529  0.29373279    -0.19720
F975        F  0.65032437  0.50371090  0.31495226    -0.20040
F976        F  0.76396740  0.49738669  0.33271666    -0.22710
C977        C  0.03067674  0.61874077  0.25564291    -0.05550
C978        C  0.99774340  0.64529917  0.26999373     0.00380
C979        C  0.96530049  0.63976067  0.29906323    -0.08190
C980        C  0.94783056  0.60686480  0.30541207    -0.05570
C981        C  0.96375342  0.57966441  0.28451436     0.00370
C982        C  0.02213056  0.58589009  0.26624397    -0.08100
C983        C  0.08460519  0.56343029  0.26153567     0.62280
H984        H  0.06638282  0.62389225  0.23751774     0.12970
H985        H  0.91920404  0.60292972  0.32608214     0.12980
C986        C  0.95016736  0.66791117  0.32344504     0.62510
F987        F  0.14737593  0.57910438  0.27759070    -0.22660
F988        F  0.08753389  0.55968118  0.22645908    -0.19990
F989        F  0.08444544  0.53238018  0.27585961    -0.19660
F990        F  0.89791255  0.68857070  0.30653583    -0.19720
F991        F  0.01221501  0.68612837  0.33468007    -0.20040
F992        F  0.92711171  0.65595498  0.35268635    -0.22710
C993        C  0.56476584  0.62655654  0.26755930    -0.05550
C994        C  0.53007088  0.64318281  0.23831653     0.00380
C995        C  0.50865655  0.62409220  0.20744228    -0.08190
C996        C  0.52916158  0.59005736  0.20598653    -0.05570
C997        C  0.56711661  0.57209811  0.23479337     0.00370
C998        C  0.57941728  0.59153969  0.26728163    -0.08100
C999        C  0.60490764  0.57650783  0.30261747     0.62280
H1000       H  0.57830097  0.64146771  0.29138506     0.12970
H1001       H  0.51238270  0.57773921  0.18141026     0.12980
C1002       C  0.46429952  0.63994269  0.17581204     0.62510
F1003       F  0.60431729  0.59912707  0.32957584    -0.22660
F1004       F  0.67412035  0.56696728  0.30619305    -0.19990
F1005       F  0.56153627  0.54992651  0.30736997    -0.19660
F1006       F  0.50080525  0.66723497  0.16634781    -0.19720
F1007       F  0.39983435  0.65038430  0.18382377    -0.20040
F1008       F  0.44979875  0.61795256  0.14741683    -0.22710
C1009       C  0.41792389  0.50027682  0.25767470    -0.05550
C1010       C  0.43637937  0.97136957  0.27794917     0.00380
C1011       C  0.51153237  0.96418191  0.28360414    -0.08190
C1012       C  0.55698926  0.98174983  0.26450817    -0.05570
C1013       C  0.53861039  0.50990438  0.24383106     0.00370
C1014       C  0.46278677  0.51509811  0.23654296    -0.08100
C1015       C  0.42235322  0.52890080  0.20256458     0.62280
H1016       H  0.36531688  0.51056697  0.25516498     0.12970
H1017       H  0.60707808  0.97134701  0.26407311     0.12980
C1018       C  0.54685952  0.93752803  0.30860869     0.62510
F1019       F  0.36303507  0.50936635  0.19017874    -0.22660
F1020       F  0.46086935  0.52752430  0.17601792    -0.19990
F1021       F  0.39934306  0.56104259  0.20790222    -0.19660
F1022       F  0.54754225  0.90700322  0.29133716    -0.19720
F1023       F  0.51506989  0.93478884  0.33732669    -0.20040
F1024       F  0.61626549  0.94532256  0.32256898    -0.22710
C1025       C  0.41489274  0.88578344  0.30936113    -0.05550
C1026       C  0.39910996  0.90949065  0.28241753     0.00380
C1027       C  0.40939672  0.89568548  0.24831182    -0.08190
C1028       C  0.43091766  0.86159673  0.24550576    -0.05570
C1029       C  0.43190936  0.83862511  0.27201456     0.00370
C1030       C  0.41814559  0.85098385  0.30412269    -0.08100
C1031       C  0.40735043  0.82978184  0.33463090     0.62280
H1032       H  0.43020072  0.89306038  0.33585498     0.12970
H1033       H  0.44463731  0.85167942  0.22160673     0.12980
C1034       C  0.39933370  0.91378422  0.21350837     0.62510
F1035       F  0.33946154  0.83505839  0.34155056    -0.22660
F1036       F  0.45581724  0.83995159  0.36371973    -0.19990
F1037       F  0.41415601  0.79585014  0.32892042    -0.19660
F1038       F  0.43123057  0.94469305  0.21583786    -0.19720
F1039       F  0.32811669  0.91626870  0.20052510    -0.20040
F1040       F  0.42820028  0.89643579  0.18821392    -0.22710
C1041       C  0.95798780  0.98567049  0.27825500    -0.05550
C1042       C  0.94544690  0.51757726  0.26349432     0.00380
C1043       C  0.95577475  0.51950743  0.22822542    -0.08190
C1044       C  0.00532441  0.99783304  0.21781059    -0.05570
C1045       C  0.01945842  0.96574224  0.23151716     0.00370
C1046       C  0.99154201  0.95919641  0.26322534    -0.08100
C1047       C  0.99287298  0.92747174  0.28521913     0.62280
H1048       H  0.94035871  0.98066724  0.30250442     0.12970
H1049       H  0.02847904  0.00564411  0.19613505     0.12980
C1050       C  0.91602664  0.54144758  0.19961983     0.62510
F1051       F  0.92329444  0.91672010  0.28439529    -0.22660
F1052       F  0.02263490  0.93547940  0.31955222    -0.19990
F1053       F  0.03006694  0.90065143  0.27608852    -0.19660
F1054       F  0.94388725  0.57335084  0.20164259    -0.19720
F1055       F  0.84407751  0.54170206  0.20024214    -0.20040
F1056       F  0.92180484  0.02887342  0.16682941    -0.22710
C1057       C  0.11807162  0.88544551  0.22814602    -0.05550
C1058       C  0.05743259  0.90537800  0.21586822     0.00380
C1059       C  0.98975599  0.88760183  0.20536548    -0.08190
C1060       C  0.98965312  0.85255807  0.20669043    -0.05570
C1061       C  0.04933749  0.83430508  0.22095831     0.00370
C1062       C  0.11593063  0.85072495  0.23086654    -0.08100
C1063       C  0.18547146  0.83230015  0.24389777     0.62280
H1064       H  0.16978239  0.89662805  0.23529647     0.12970
H1065       H  0.94071875  0.83871111  0.19697855     0.12980
C1066       C  0.91484556  0.90175131  0.19287462     0.62510
F1067       F  0.24403581  0.85366932  0.25138675    -0.22660
F1068       F  0.19929274  0.80979475  0.21848178    -0.19990
F1069       F  0.18036537  0.81560918  0.27412051    -0.19660
F1070       F  0.90190019  0.90319134  0.15692850    -0.19720
F1071       F  0.90284652  0.93225681  0.20736501    -0.20040
F1072       F  0.86279728  0.88098777  0.20206771    -0.22710
C1073       C  0.16335470  0.95011269  0.26840416    -0.05550
C1074       C  0.14744607  0.95626453  0.23250387     0.00380
C1075       C  0.20630330  0.97011017  0.21948127    -0.08190
C1076       C  0.27686756  0.96492402  0.23817747    -0.05570
C1077       C  0.29478395  0.95160122  0.27231023     0.00370
C1078       C  0.23185331  0.94122368  0.28582127    -0.08100
C1079       C  0.22752168  0.91480547  0.31305548     0.62280
H1080       H  0.12013916  0.94538769  0.28161921     0.12970
H1081       H  0.31798727  0.97000866  0.22380991     0.12980
C1082       C  0.20086929  0.99383388  0.18917141     0.62510
F1083       F  0.16302673  0.89751134  0.30709953    -0.22660
F1084       F  0.23262883  0.92986641  0.34565657    -0.19990
F1085       F  0.27652555  0.89016512  0.31141501    -0.19660
F1086       F  0.13247116  0.00289424  0.17544168    -0.19720
F1087       F  0.23219225  0.97968715  0.16297925    -0.20040
F1088       F  0.23676907  0.02328559  0.20095306    -0.22710
C1089       C  0.01412342  0.77756887  0.39740165    -0.05550
C1090       C  0.08392748  0.77293802  0.41638805     0.00380
C1091       C  0.13016865  0.75244964  0.39916519    -0.08190
C1092       C  0.11359287  0.74885465  0.36270217    -0.05570
C1093       C  0.04860365  0.75880826  0.34324030     0.00370
C1094       C  0.99547574  0.77163110  0.36125757    -0.08100
C1095       C  0.92086709  0.78120613  0.34306056     0.62280
H1096       H  0.97486085  0.78834125  0.41081370     0.12970
H1097       H  0.15155950  0.73627596  0.34923282     0.12980
C1098       C  0.19586414  0.73210420  0.41425124     0.62510
F1099       F  0.88086504  0.79542404  0.36590413    -0.22660
F1100       F  0.88406505  0.75305862  0.32811342    -0.19990
F1101       F  0.92564692  0.80443910  0.31771044    -0.19660
F1102       F  0.21046068  0.72878256  0.44968835    -0.19720
F1103       F  0.25456454  0.74616062  0.40358034    -0.20040
F1104       F  0.18711791  0.69968111  0.40057868    -0.22710
C1105       C  0.47136967  0.74093431  0.12873204    -0.05550
C1106       C  0.43276356  0.75827815  0.15035003     0.00380
C1107       C  0.38000956  0.78075481  0.13561955    -0.08190
C1108       C  0.37585086  0.78847617  0.10036827    -0.05570
C1109       C  0.40915361  0.76952119  0.07693484     0.00370
C1110       C  0.45086276  0.74127570  0.09236802    -0.08100
C1111       C  0.46359890  0.70715157  0.07567906     0.62280
H1112       H  0.51025119  0.72284562  0.14032455     0.12970
H1113       H  0.34274457  0.80842514  0.09115657     0.12980
C1114       C  0.32801942  0.79627602  0.15662849     0.62510
F1115       F  0.44181370  0.68185098  0.09536476    -0.22660
F1116       F  0.53527906  0.70252733  0.07527072    -0.19990
F1117       F  0.42535263  0.70195488  0.04287716    -0.19660
F1118       F  0.36480350  0.81301943  0.18564885    -0.19720
F1119       F  0.28634280  0.77128665  0.16709363    -0.20040
F1120       F  0.28266280  0.81875917  0.13747925    -0.22710
C1121       C  0.19031827  0.76829465  0.00677587    -0.05550
C1122       C  0.17780117  0.78485287  0.47439413     0.00380
C1123       C  0.24050750  0.79951293  0.46418519    -0.08190
C1124       C  0.30796876  0.79404713  0.48480992    -0.05570
C1125       C  0.32024172  0.77763235  0.01708502     0.00370
C1126       C  0.25845954  0.76137821  0.02631370    -0.08100
C1127       C  0.25610668  0.73750434  0.05611586     0.62280
H1128       H  0.14551583  0.76087426  0.01837882     0.12970
H1129       H  0.35471427  0.80341977  0.47593395     0.13060
C1130       C  0.24146706  0.82286763  0.43358151     0.62510
F1131       F  0.20042847  0.71459474  0.04718466    -0.22660
F1132       F  0.24478487  0.75511634  0.08547782    -0.19990
F1133       F  0.31589577  0.71852650  0.06358346    -0.19660
F1134       F  0.21386970  0.80736922  0.40245873    -0.19720
F1135       F  0.30977537  0.83286153  0.43036319    -0.20040
F1136       F  0.20548032  0.85188909  0.43821266    -0.22710
C1137       C  0.04207134  0.88401168  0.44136129    -0.05550
C1138       C  0.05258685  0.89463639  0.47600830     0.00380
C1139       C  0.08050997  0.87239314  0.00222455    -0.08190
C1140       C  0.09326317  0.83914768  0.49269560    -0.05570
C1141       C  0.08310826  0.82693132  0.45753069     0.00370
C1142       C  0.06213659  0.85195897  0.43075375    -0.08100
C1143       C  0.06106467  0.85071179  0.39131564     0.62280
H1144       H  0.02112890  0.90220653  0.42191661     0.12970
H1145       H  0.10925990  0.82181517  0.01346490     0.12980
C1146       C  0.09376007  0.88347852  0.04031878     0.62510
F1147       F  0.99100332  0.84994300  0.37406567    -0.22660
F1148       F  0.09704679  0.82503642  0.37904990    -0.19990
F1149       F  0.09318210  0.87951050  0.38172540    -0.19660
F1150       F  0.03062869  0.89440035  0.04945916    -0.19720
F1151       F  0.14334926  0.90936491  0.04543192    -0.20040
F1152       F  0.11978024  0.85780816  0.06221752    -0.22710
C1153       C  0.00267415  0.52778207  0.34105840    -0.05550
C1154       C  0.93305082  0.53894871  0.32661454     0.00380
C1155       C  0.88637805  0.54445607  0.35188026    -0.08190
C1156       C  0.90505910  0.53077702  0.38524675    -0.05570
C1157       C  0.97135253  0.51646885  0.39729174     0.00370
C1158       C  0.02214124  0.51555747  0.37502875    -0.08100
C1159       C  0.09586614  0.00077215  0.38628993     0.62280
H1160       H  0.04227899  0.52735615  0.32489921     0.12970
H1161       H  0.86882837  0.53390850  0.40366212     0.12980
C1162       C  0.82491112  0.56916010  0.35084371     0.62510
F1163       F  0.13284575  0.99775298  0.35882526    -0.22660
F1164       F  0.08969206  0.96911062  0.39931200    -0.19990
F1165       F  0.13570472  0.52124578  0.41170767    -0.19660
F1166       F  0.76637841  0.55381758  0.36051915    -0.19720
F1167       F  0.80324648  0.58439323  0.31992872    -0.20040
F1168       F  0.84674673  0.59448999  0.37504664    -0.22710
C1169       C  0.09030427  0.94945547  0.11362434    -0.05550
C1170       C  0.02508799  0.96330870  0.09852844     0.00380
C1171       C  0.96976570  0.96464014  0.11823845    -0.08190
C1172       C  0.98740247  0.95889691  0.15402556    -0.05570
C1173       C  0.05503329  0.94738736  0.17098685     0.00370
C1174       C  0.10101529  0.93635461  0.14744418    -0.08100
C1175       C  0.15161183  0.90696053  0.15364953     0.62280
H1176       H  0.13010807  0.94575039  0.09731519     0.12970
H1177       H  0.94588938  0.96322297  0.16857539     0.12980
C1178       C  0.89210969  0.97124071  0.10216675     0.62510
F1179       F  0.20033029  0.91156680  0.18345239    -0.22660
F1180       F  0.11260163  0.87796936  0.15556801    -0.19990
F1181       F  0.18989854  0.90211195  0.12688894    -0.19660
F1182       F  0.86723170  0.94580118  0.07832413    -0.19720
F1183       F  0.88616395  0.00164210  0.08571345    -0.20040
F1184       F  0.84778414  0.97199405  0.12676012    -0.22710
C1185       C  0.40907768  0.88333557  0.04363759    -0.05550
C1186       C  0.46761650  0.89047893  0.02787971     0.00380
C1187       C  0.50248817  0.86312424  0.01469811    -0.08190
C1188       C  0.47543513  0.83038717  0.01710415    -0.05570
C1189       C  0.41927509  0.82147608  0.03539780     0.00370
C1190       C  0.37954578  0.85069975  0.04474310    -0.08100
C1191       C  0.30212086  0.85378121  0.05093352     0.62280
H1192       H  0.38148383  0.90453647  0.05281755     0.12970
H1193       H  0.49792197  0.81179287  0.00231808     0.12980
C1194       C  0.56898047  0.86765162  0.49822385     0.62510
F1195       F  0.26599270  0.87569090  0.02701476    -0.22660
F1196       F  0.30272187  0.86724426  0.08403664    -0.19990
F1197       F  0.26142245  0.82524198  0.04755520    -0.19660
F1198       F  0.62387904  0.88096680  0.02291427    -0.19720
F1199       F  0.55545499  0.88869656  0.47022868    -0.20040
F1200       F  0.59276488  0.83769529  0.48604523    -0.22710
C1201       C  0.57732066  0.98259567  0.13994964    -0.05550
C1202       C  0.57571983  0.50801734  0.11592771     0.00380
C1203       C  0.59464375  0.54077532  0.12866376    -0.08190
C1204       C  0.61053421  0.54706866  0.16517753    -0.05570
C1205       C  0.60069025  0.52280941  0.19035891     0.00370
C1206       C  0.59606558  0.98867665  0.17644225    -0.08100
C1207       C  0.62439840  0.95810598  0.19670599     0.62280
H1208       H  0.56708355  0.95716137  0.12982369     0.12970
H1209       H  0.62604430  0.57223192  0.17343570     0.12980
C1210       C  0.59522896  0.56930812  0.10353223     0.62510
F1211       F  0.65364660  0.93557568  0.17572419    -0.22660
F1212       F  0.56991143  0.94155786  0.20858640    -0.19990
F1213       F  0.67906349  0.96672662  0.22347767    -0.19660
F1214       F  0.52770501  0.57280772  0.08389434    -0.19720
F1215       F  0.64307688  0.56244809  0.08150837    -0.20040
F1216       F  0.61473866  0.59960977  0.12067389    -0.22710
C1217       C  0.37413425  0.93759104  0.36001404    -0.05550
C1218       C  0.38539094  0.95935629  0.33300242     0.00380
C1219       C  0.40992427  0.99213507  0.34690028    -0.08190
C1220       C  0.44629136  0.99618021  0.38219614    -0.05570
C1221       C  0.44076000  0.97206080  0.40735630     0.00370
C1222       C  0.39667190  0.94400574  0.39614289    -0.08100
C1223       C  0.37212245  0.92084574  0.42227294     0.62280
H1224       H  0.34844023  0.91427791  0.35410469     0.12970
H1225       H  0.47013785  0.52027194  0.39117257     0.12980
C1226       C  0.37946110  0.02418189  0.33034809     0.62510
F1227       F  0.32986164  0.89464424  0.40620586    -0.22660
F1228       F  0.33227880  0.93866333  0.44269671    -0.19990
F1229       F  0.43038021  0.90740520  0.44333401    -0.19660
F1230       F  0.31934785  0.51781675  0.30548694    -0.19720
F1231       F  0.43037365  0.04111037  0.31615236    -0.20040
F1232       F  0.35829570  0.54514105  0.35534853    -0.22710
C1233       C  0.00327222  0.70582229  0.07906267    -0.05550
C1234       C  0.93087107  0.70982288  0.06301671     0.00380
C1235       C  0.88774195  0.72879402  0.08336779    -0.08190
C1236       C  0.91078885  0.73080199  0.11964907    -0.05570
C1237       C  0.97859240  0.72046496  0.13622536     0.00370
C1238       C  0.02742629  0.70922760  0.11519973    -0.08100
C1239       C  0.10366443  0.69951028  0.13027520     0.62280
H1240       H  0.04045264  0.69725759  0.06328426     0.12970
H1241       H  0.87551360  0.74254259  0.13524531     0.12980
C1242       C  0.82158893  0.75036656  0.07152359     0.62510
F1243       F  0.13987881  0.68718986  0.10494482    -0.22660
F1244       F  0.10315590  0.67466469  0.15444918    -0.19990
F1245       F  0.14112003  0.72725518  0.14596058    -0.19660
F1246       F  0.76379801  0.73694787  0.08364801    -0.19720
F1247       F  0.80212402  0.75508750  0.03643796    -0.20040
F1248       F  0.83458329  0.78219057  0.08633161    -0.22710
C1249       C  0.94660186  0.75117371  0.00408006    -0.05550
C1250       C  0.95948422  0.71628006  0.00440836     0.00380
C1251       C  0.02176915  0.70646093  0.98996966    -0.08190
C1252       C  0.05576893  0.73077392  0.47234282    -0.05570
C1253       C  0.04226418  0.76567867  0.47185336     0.00370
C1254       C  0.97982845  0.77522139  0.48590948    -0.08100
C1255       C  0.93891817  0.80830565  0.48171115     0.62280
H1256       H  0.90609363  0.76007940  0.01767509     0.12970
H1257       H  0.09675324  0.72227537  0.45886704     0.12980
C1258       C  0.05914738  0.67216791  0.99228804     0.62510
F1259       F  0.86616586  0.80232383  0.47872613    -0.22660
F1260       F  0.94528397  0.82518903  0.45217846    -0.19990
F1261       F  0.95974181  0.82862586  0.01093952    -0.19660
F1262       F  0.02636702  0.65051891  0.46628440    -0.19720
F1263       F  0.06330254  0.65772206  0.02417238    -0.20040
F1264       F  0.12955870  0.67508444  0.98779505    -0.22710
C1265       C  0.95119315  0.63641714  0.05188003    -0.05550
C1266       C  0.92251784  0.65512232  0.02176050     0.00380
C1267       C  0.90330371  0.63540369  0.98970428    -0.08190
C1268       C  0.91318998  0.60044918  0.48994561    -0.05570
C1269       C  0.94852022  0.58408205  0.01888982     0.00370
C1270       C  0.96738489  0.60199621  0.05064358    -0.08100
C1271       C  0.00295508  0.58449800  0.08332673     0.62280
H1272       H  0.96296442  0.64831258  0.07711987     0.12970
H1273       H  0.89691727  0.58551143  0.46622269     0.12980
C1274       C  0.87497173  0.64860706  0.45363158     0.62510
F1275       F  0.01394257  0.60577364  0.11236548    -0.22660
F1276       F  0.06852207  0.57228673  0.07870919    -0.19990
F1277       F  0.96031305  0.55815887  0.08994307    -0.19660
F1278       F  0.89906210  0.68024770  0.44910027    -0.19720
F1279       F  0.80141573  0.64717996  0.44739780    -0.20040
F1280       F  0.89852235  0.62924795  0.42821394    -0.22710
C1281       C  0.57824987  0.73141726  0.41482588    -0.05550
C1282       C  0.57320218  0.69681898  0.42209062     0.00380
C1283       C  0.55121842  0.67364126  0.39257059    -0.08190
C1284       C  0.53390610  0.68768533  0.35918473    -0.05570
C1285       C  0.53745969  0.72196888  0.35347960     0.00370
C1286       C  0.56197332  0.74435847  0.38142851    -0.08100
C1287       C  0.56819618  0.78213338  0.37874699     0.62280
H1288       H  0.59589763  0.74921411  0.43612571     0.12970
H1289       H  0.51773191  0.67183773  0.33619787     0.12980
C1290       C  0.55098734  0.63500511  0.39211114     0.62510
F1291       F  0.63716018  0.79298232  0.39137808    -0.22660
F1292       F  0.52414917  0.79675383  0.39927805    -0.19990
F1293       F  0.55017572  0.79329512  0.34514613    -0.19660
F1294       F  0.62044978  0.62369271  0.39792182    -0.19720
F1295       F  0.51697351  0.62200640  0.36031078    -0.20040
F1296       F  0.51376931  0.62050788  0.41491853    -0.22710
C1297       C  0.56836442  0.73531032  0.00975014    -0.05550
C1298       C  0.53782434  0.71621585  0.47920785     0.00380
C1299       C  0.46376772  0.72537099  0.46589158    -0.08190
C1300       C  0.42422015  0.74115041  0.48863857    -0.05570
C1301       C  0.45312837  0.75962908  0.01891048     0.00370
C1302       C  0.52974399  0.75724889  0.02891176    -0.08100
C1303       C  0.57623544  0.77712807  0.05876974     0.62280
H1304       H  0.62491039  0.73494444  0.01899235     0.12970
H1305       H  0.36734894  0.73900437  0.48114427     0.12980
C1306       C  0.41666683  0.72488977  0.42907658     0.62510
F1307       F  0.61536629  0.75539442  0.08168669    -0.22660
F1308       F  0.53905394  0.79769390  0.07784792    -0.19990
F1309       F  0.62389033  0.79697333  0.04513023    -0.19660
F1310       F  0.35264958  0.70856267  0.43002297    -0.19720
F1311       F  0.44163643  0.71036273  0.40201253    -0.20040
F1312       F  0.40153035  0.75774815  0.41984348    -0.22710
C1313       C  0.62698180  0.62871966  0.47037169    -0.05550
C1314       C  0.57151687  0.65247222  0.47081680     0.00380
C1315       C  0.50941571  0.64005649  0.48338533    -0.08190
C1316       C  0.51359456  0.60952560  0.50089857    -0.05570
C1317       C  0.56362345  0.58527087  0.49597583     0.00370
C1318       C  0.62392316  0.59553200  0.48182468    -0.08100
C1319       C  0.68590198  0.57228912  0.47912977     0.62280
H1320       H  0.67310749  0.63617202  0.45972347     0.12970
H1321       H  0.46873997  0.60208292  0.51282820     0.12980
C1322       C  0.43286693  0.64746504  0.46650982     0.62510
F1323       F  0.74149385  0.58858175  0.46766826    -0.22660
F1324       F  0.66324612  0.54625189  0.45570036    -0.19990
F1325       F  0.71280511  0.55973553  0.01160134    -0.19660
F1326       F  0.43045127  0.65908999  0.43369421    -0.19720
F1327       F  0.40191869  0.66946332  0.48675519    -0.20040
F1328       F  0.39042974  0.61870554  0.46197261    -0.22710
C1329       C  0.69683063  0.68566869  0.01117281    -0.05550
C1330       C  0.67289005  0.69669054  0.47668325     0.00380
C1331       C  0.73102472  0.70789248  0.45940705    -0.08190
C1332       C  0.80007669  0.71309982  0.47958844    -0.05570
C1333       C  0.82500141  0.69713461  0.01128950     0.00370
C1334       C  0.76943283  0.68224991  0.02714927    -0.08100
C1335       C  0.77860589  0.66112103  0.05987058     0.62280
H1336       H  0.65649988  0.67636784  0.02510835     0.12970
H1337       H  0.83758168  0.72682715  0.46764023     0.12980
C1338       C  0.73140586  0.71164965  0.42014709     0.62510
F1339       F  0.73099248  0.67128372  0.08100047    -0.22660
F1340       F  0.84472942  0.66267590  0.08031597    -0.19990
F1341       F  0.76352280  0.62801629  0.04989081    -0.19660
F1342       F  0.71034706  0.74317644  0.40983433    -0.19720
F1343       F  0.69242900  0.68696563  0.40006304    -0.20040
F1344       F  0.79889832  0.70870261  0.41195658    -0.22710
C1345       C  0.58774694  0.69024338  0.96163629    -0.02260
C1346       C  0.90906195  0.69440830  0.52480050    -0.02260
O1347       O  0.48217262  0.54174855  0.00709986    -0.74190
O1348       O  0.43645940  0.94930499  0.52256787    -0.74230
O1349       O  0.48796011  0.50352031  0.56398275    -0.74280
O1350       O  0.42572095  0.98889842  0.96520916    -0.74330
O1351       O  0.53523712  0.97385205  0.95905554    -0.74260
O1352       O  0.59888131  0.98919098  0.55933657    -0.74240
O1353       O  0.54686701  0.93529351  0.51751418    -0.74220
O1354       O  0.59165633  0.52659546  0.00172314    -0.74280
Ni1355     Ni  0.45419278  0.99630590  0.01487326     1.25410
Ni1356     Ni  0.57196435  0.98063547  0.50917166     1.25360
C1357       C  0.54540200  0.54949728  0.00221325     0.87980
C1358       C  0.48472037  0.92678230  0.52254522     0.87920
C1359       C  0.55345395  0.49972880  0.57788721     0.87940
C1360       C  0.46923974  0.97899313  0.94562641     0.88120
O1361       O  0.08307175  0.95181408  0.99047608    -0.74190
O1362       O  0.03367865  0.54154447  0.51375397    -0.74230
O1363       O  0.06982051  0.98502983  0.54989064    -0.74280
O1364       O  0.04609533  0.50836399  0.95343142    -0.74330
O1365       O  0.93165327  0.99298358  0.94618750    -0.74260
O1366       O  0.95516821  0.97007000  0.54187606    -0.74240
O1367       O  0.91869332  0.52650405  0.50573585    -0.74220
O1368       O  0.96808464  0.93670154  0.98281171    -0.74280
Ni1369     Ni  0.06233688  0.99724303  0.50209109     1.25410
Ni1370     Ni  0.93940084  0.98103643  0.99387635     1.25360
C1371       C  0.03377906  0.92940910  0.98366652     0.87980
C1372       C  0.96809544  0.54878988  0.51350255     0.87920
C1373       C  0.01599728  0.97350921  0.56170175     0.87940
C1374       C  0.98452822  0.50488983  0.93394112     0.88120
C1375       C  0.40023939  0.78157491  0.53788219    -0.02260
C1376       C  0.09721310  0.78803106  0.95439695    -0.02260
C1377       C  0.07008267  0.94376995  0.71239318    -0.02260
C1378       C  0.37786746  0.94789171  0.79160951    -0.02260
O1379       O  0.56116844  0.70246429  0.74414939    -0.74190
O1380       O  0.51411641  0.79551802  0.76091591    -0.74230
O1381       O  0.56357405  0.74281454  0.80101874    -0.74280
O1382       O  0.51430294  0.75585323  0.70338630    -0.74330
O1383       O  0.40088943  0.74197300  0.70424640    -0.74260
O1384       O  0.45135929  0.72663962  0.80207512    -0.74240
O1385       O  0.40214901  0.78001705  0.76280600    -0.74220
O1386       O  0.44788017  0.68792056  0.74398099    -0.74280
Ni1387     Ni  0.54221400  0.74974258  0.75221971     1.25410
Ni1388     Ni  0.42154951  0.73361407  0.75326508     1.25360
C1389       C  0.51212978  0.67970652  0.74191315     0.87980
C1390       C  0.45042919  0.80293307  0.76518664     0.87920
C1391       C  0.51598821  0.73195472  0.81737179     0.87940
C1392       C  0.44964650  0.75190415  0.68788916     0.88120
O1393       O  0.94872402  0.69693106  0.74999399    -0.74190
O1394       O  0.97448249  0.78813670  0.72864719    -0.74230
O1395       O  0.94338197  0.73143870  0.69067546    -0.74280
O1396       O  0.97545045  0.75367197  0.78695239    -0.74330
O1397       O  0.09164088  0.74526442  0.79023698    -0.74260
O1398       O  0.05904767  0.72293184  0.69219442    -0.74240
O1399       O  0.09016390  0.77884426  0.73091648    -0.74220
O1400       O  0.06535102  0.68859549  0.75220940    -0.74280
Ni1401     Ni  0.95627802  0.74278272  0.73878113     1.25410
Ni1402     Ni  0.08076552  0.73351687  0.74139004     1.25360
C1403       C  0.00402767  0.67850022  0.75654128     0.87980
C1404       C  0.03755280  0.79864448  0.72690782     0.87920
C1405       C  0.99519745  0.72466895  0.67495422     0.87940
C1406       C  0.03807405  0.75271845  0.80488703     0.88120
C1407       C  0.59676668  0.53397271  0.73029536    -0.02260
C1408       C  0.91905157  0.54692522  0.78569907    -0.02260
C1409       C  0.71828673  0.56394797  0.73831339    -0.05550
C1410       C  0.68073691  0.53580513  0.74853460     0.00380
C1411       C  0.72675078  0.51503020  0.77332454    -0.08190
C1412       C  0.80075624  0.51799950  0.77604190    -0.05570
C1413       C  0.83610111  0.54771446  0.77033129     0.00370
C1414       C  0.79104897  0.57254891  0.75108361    -0.08100
C1415       C  0.81243649  0.60849862  0.74410492     0.62280
H1416       H  0.68760282  0.58207576  0.72255714     0.12970
H1417       H  0.83193101  0.49818310  0.78923129     0.12980
C1418       C  0.71120296  0.49396974  0.80338000     0.62510
F1419       F  0.76329088  0.62356376  0.71870237    -0.22660
F1420       F  0.87562168  0.60980648  0.73227125    -0.19990
F1421       F  0.81625067  0.62808036  0.77394666    -0.19660
F1422       F  0.71268701  0.96042477  0.79373160    -0.19720
F1423       F  0.65032389  0.50370973  0.81495183    -0.20040
F1424       F  0.76396708  0.49738520  0.83271534    -0.22710
C1425       C  0.03067918  0.61874057  0.75564553    -0.05550
C1426       C  0.99774331  0.64529885  0.76999511     0.00380
C1427       C  0.96529727  0.63976028  0.79906359    -0.08190
C1428       C  0.94782695  0.60686435  0.80541204    -0.05570
C1429       C  0.96375228  0.57966399  0.78451495     0.00370
C1430       C  0.02213204  0.58588984  0.76624625    -0.08100
C1431       C  0.08460770  0.56343017  0.76153906     0.62280
H1432       H  0.06638745  0.62389216  0.73752142     0.12970
H1433       H  0.91919797  0.60292921  0.82608115     0.12980
C1434       C  0.95016101  0.66791075  0.82344470     0.62510
F1435       F  0.14737725  0.57910385  0.77759630    -0.22660
F1436       F  0.08754082  0.55968214  0.72646283    -0.19990
F1437       F  0.08444600  0.53237952  0.77586157    -0.19660
F1438       F  0.89790595  0.68856957  0.80653449    -0.19720
F1439       F  0.01220731  0.68612873  0.83468054    -0.20040
F1440       F  0.92710383  0.65595446  0.85268559    -0.22710
C1441       C  0.56475951  0.62655522  0.76755957    -0.05550
C1442       C  0.53006967  0.64318251  0.73831633     0.00380
C1443       C  0.50866036  0.62409280  0.70744102    -0.08190
C1444       C  0.52916483  0.59005786  0.70598501    -0.05570
C1445       C  0.56711508  0.57209768  0.73479240     0.00370
C1446       C  0.57941163  0.59153839  0.76728122    -0.08100
C1447       C  0.60490044  0.57650563  0.80261679     0.62280
H1448       H  0.57829090  0.64146563  0.79138602     0.12970
H1449       H  0.51238849  0.57774032  0.68140817     0.12980
C1450       C  0.46430904  0.63994442  0.67580991     0.62510
F1451       F  0.60430774  0.59912395  0.82957569    -0.22660
F1452       F  0.67411374  0.56696574  0.80619285    -0.19990
F1453       F  0.56152960  0.54992369  0.80736806    -0.19660
F1454       F  0.50081879  0.66723648  0.66634811    -0.19720
F1455       F  0.39984222  0.65038662  0.68381919    -0.20040
F1456       F  0.44981157  0.61795505  0.64741395    -0.22710
C1457       C  0.41792268  0.50027752  0.75767544    -0.05550
C1458       C  0.43637795  0.97136999  0.77794953     0.00380
C1459       C  0.51153062  0.96418186  0.78360398    -0.08190
C1460       C  0.55698744  0.98174969  0.76450792    -0.05570
C1461       C  0.53860889  0.50990429  0.74383106     0.00370
C1462       C  0.46278563  0.51509881  0.73654370    -0.08100
C1463       C  0.42235247  0.52890303  0.70256607     0.62280
H1464       H  0.36531557  0.51056757  0.75516563     0.12970
H1465       H  0.60707600  0.97134672  0.76407271     0.12980
C1466       C  0.54685734  0.93752737  0.80860786     0.62510
F1467       F  0.36303308  0.50936957  0.69017988    -0.22660
F1468       F  0.46086791  0.52752682  0.67601916    -0.19990
F1469       F  0.39934495  0.56104504  0.70790504    -0.19660
F1470       F  0.54753797  0.90700272  0.79133583    -0.19720
F1471       F  0.51506863  0.93478812  0.83732615    -0.20040
F1472       F  0.61626402  0.94532118  0.82256762    -0.22710
C1473       C  0.41488675  0.88578290  0.80935959    -0.05550
C1474       C  0.39910593  0.90949097  0.78241673     0.00380
C1475       C  0.40939244  0.89568612  0.74831074    -0.08190
C1476       C  0.43091194  0.86159710  0.74550411    -0.05570
C1477       C  0.43190237  0.83862500  0.77201242     0.00370
C1478       C  0.41813712  0.85098331  0.80412041    -0.08100
C1479       C  0.40733736  0.82978077  0.83462759     0.62280
H1480       H  0.43019999  0.89305910  0.83585331     0.12970
H1481       H  0.44463157  0.85168002  0.72160499     0.12980
C1482       C  0.39933167  0.91378536  0.71350753     0.62510
F1483       F  0.33944650  0.83505709  0.84154471    -0.22660
F1484       F  0.45580021  0.83994990  0.86371810    -0.19990
F1485       F  0.41414397  0.79584915  0.82891698    -0.19660
F1486       F  0.43122732  0.94469444  0.71583791    -0.19720
F1487       F  0.32811507  0.91626934  0.70052272    -0.20040
F1488       F  0.42820168  0.89643761  0.68821378    -0.22710
C1489       C  0.95798503  0.98567038  0.77825397    -0.05550
C1490       C  0.94544634  0.51757723  0.76349362     0.00380
C1491       C  0.95577848  0.51950850  0.72822546    -0.08190
C1492       C  0.00532626  0.99783330  0.71781084    -0.05570
C1493       C  0.01945751  0.96574208  0.73151687     0.00370
C1494       C  0.99153945  0.95919623  0.76322458    -0.08100
C1495       C  0.99287061  0.92747177  0.78521872     0.62280
H1496       H  0.94035514  0.98066714  0.80250319     0.12970
H1497       H  0.02848295  0.00564437  0.69613592     0.12980
C1498       C  0.91603437  0.54144986  0.69961984     0.62510
F1499       F  0.92329228  0.91671924  0.78439369    -0.22660
F1500       F  0.02262958  0.93548006  0.81955204    -0.19990
F1501       F  0.03006746  0.90065193  0.77608946    -0.19660
F1502       F  0.94389900  0.57335242  0.70164308    -0.19720
F1503       F  0.84408503  0.54170643  0.70024135    -0.20040
F1504       F  0.92180930  0.02887433  0.66682913    -0.22710
C1505       C  0.11807207  0.88544571  0.72814941    -0.05550
C1506       C  0.05743330  0.90537770  0.71586931     0.00380
C1507       C  0.98975740  0.88760118  0.70536592    -0.08190
C1508       C  0.98965483  0.85255753  0.70669204    -0.05570
C1509       C  0.04933880  0.83430497  0.72096127     0.00370
C1510       C  0.11593112  0.85072522  0.73087108    -0.08100
C1511       C  0.18547099  0.83230083  0.74390528     0.62280
H1512       H  0.16978257  0.89662846  0.73530051     0.12970
H1513       H  0.94072135  0.83871021  0.69697938     0.12980
C1514       C  0.91484807  0.90175055  0.69287211     0.62510
F1515       F  0.24403430  0.85367034  0.75139681    -0.22660
F1516       F  0.19929802  0.80979557  0.71849038    -0.19990
F1517       F  0.18035931  0.81560973  0.77412727    -0.19660
F1518       F  0.90190963  0.90319176  0.65692610    -0.19720
F1519       F  0.90284651  0.93225549  0.70736309    -0.20040
F1520       F  0.86279680  0.88098648  0.70206159    -0.22710
C1521       C  0.16335302  0.95011487  0.76840411    -0.05550
C1522       C  0.14744531  0.95626483  0.73250347     0.00380
C1523       C  0.20630275  0.97010962  0.71948042    -0.08190
C1524       C  0.27686682  0.96492407  0.73817719    -0.05570
C1525       C  0.29478250  0.95160300  0.77231082     0.00370
C1526       C  0.23185145  0.94122726  0.78582252    -0.08100
C1527       C  0.22752096  0.91481318  0.81306080     0.62280
H1528       H  0.12013682  0.94539148  0.78161919     0.12970
H1529       H  0.31798696  0.97000858  0.72380983     0.12980
C1530       C  0.20086906  0.99383225  0.68916964     0.62510
F1531       F  0.16302253  0.89752191  0.80711117    -0.22660
F1532       F  0.23263978  0.92987815  0.84566053    -0.19990
F1533       F  0.27651855  0.89016999  0.81141952    -0.19660
F1534       F  0.13247109  0.00289199  0.67543884    -0.19720
F1535       F  0.23219371  0.97968476  0.66297843    -0.20040
F1536       F  0.23676728  0.02328452  0.70095055    -0.22710
C1537       C  0.01412235  0.77756928  0.89740280    -0.05550
C1538       C  0.08392664  0.77293935  0.91638933     0.00380
C1539       C  0.13016881  0.75245128  0.89916674    -0.08190
C1540       C  0.11359332  0.74885581  0.86270376    -0.05570
C1541       C  0.04860347  0.75880836  0.84324172     0.00370
C1542       C  0.99547489  0.77163081  0.86125881    -0.08100
C1543       C  0.92086556  0.78120466  0.84306168     0.62280
H1544       H  0.97485924  0.78834144  0.91081466     0.12970
H1545       H  0.15156081  0.73627756  0.84923460     0.12980
C1546       C  0.19586531  0.73210672  0.91425308     0.62510
F1547       F  0.88086248  0.79542204  0.86590508    -0.22660
F1548       F  0.88406548  0.75305656  0.82811481    -0.19990
F1549       F  0.92564379  0.80443760  0.81771133    -0.19660
F1550       F  0.21046097  0.72878483  0.94969017    -0.19720
F1551       F  0.25456509  0.74616426  0.90358269    -0.20040
F1552       F  0.18712173  0.69968363  0.90058031    -0.22710
C1553       C  0.47137110  0.74093387  0.62873136    -0.05550
C1554       C  0.43276330  0.75827727  0.65034891     0.00380
C1555       C  0.38000847  0.78075336  0.63561800    -0.08190
C1556       C  0.37584972  0.78847423  0.60036663    -0.05570
C1557       C  0.40915434  0.76951959  0.57693371     0.00370
C1558       C  0.45086451  0.74127466  0.59236735    -0.08100
C1559       C  0.46360077  0.70715032  0.57567891     0.62280
H1560       H  0.51025365  0.72284578  0.64032419     0.12970
H1561       H  0.34274088  0.80842250  0.59115412     0.12980
C1562       C  0.32801791  0.79627462  0.65662669     0.62510
F1563       F  0.44181665  0.68184999  0.59536525    -0.22660
F1564       F  0.53528083  0.70252627  0.57527015    -0.19990
F1565       F  0.42535355  0.70195308  0.54287728    -0.19660
F1566       F  0.36480167  0.81301840  0.68564689    -0.19720
F1567       F  0.28634152  0.77128530  0.66709206    -0.20040
F1568       F  0.28266108  0.81875750  0.63747715    -0.22710
C1569       C  0.19031967  0.76829263  0.50677456    -0.05550
C1570       C  0.17779950  0.78485496  0.97439550     0.00380
C1571       C  0.24050544  0.79951555  0.96418675    -0.08190
C1572       C  0.30796688  0.79405003  0.98481150    -0.05570
C1573       C  0.32024314  0.77762990  0.51708367     0.00370
C1574       C  0.25846077  0.76137607  0.52631247    -0.08100
C1575       C  0.25610724  0.73750256  0.55611488     0.62280
H1576       H  0.14551719  0.76087247  0.51837761     0.12970
H1577       H  0.35471215  0.80342306  0.97593561     0.13060
C1578       C  0.24146422  0.82287044  0.93358316     0.62510
F1579       F  0.20043030  0.71459239  0.54718319    -0.22660
F1580       F  0.24478247  0.75511487  0.58547615    -0.19990
F1581       F  0.31589700  0.71852535  0.56358389    -0.19660
F1582       F  0.21386703  0.80737206  0.90246034    -0.19720
F1583       F  0.30977228  0.83286465  0.93036487    -0.20040
F1584       F  0.20547677  0.85189169  0.93821439    -0.22710
C1585       C  0.04206649  0.88401284  0.94136183    -0.05550
C1586       C  0.05258367  0.89463801  0.97600874     0.00380
C1587       C  0.08051114  0.87239103  0.50222402    -0.08190
C1588       C  0.09326196  0.83914971  0.99269638    -0.05570
C1589       C  0.08310564  0.82693292  0.95753159     0.00370
C1590       C  0.06213234  0.85196019  0.93075445    -0.08100
C1591       C  0.06105838  0.85071242  0.89131620     0.62280
H1592       H  0.02112229  0.90220732  0.92191709     0.12970
H1593       H  0.10926007  0.82181283  0.51346394     0.12980
C1594       C  0.09375967  0.88347590  0.54031837     0.62510
F1595       F  0.99099649  0.84994148  0.87406703    -0.22660
F1596       F  0.09704331  0.82503785  0.87905079    -0.19990
F1597       F  0.09317141  0.87951178  0.88172464    -0.19660
F1598       F  0.03062798  0.89439817  0.54945805    -0.19720
F1599       F  0.14334994  0.90936182  0.54543241    -0.20040
F1600       F  0.11977764  0.85780510  0.56221698    -0.22710
C1601       C  0.00267035  0.52778024  0.84105797    -0.05550
C1602       C  0.93304777  0.53894768  0.82661398     0.00380
C1603       C  0.88637486  0.54445562  0.85187961    -0.08190
C1604       C  0.90505582  0.53077708  0.88524640    -0.05570
C1605       C  0.97134878  0.51646856  0.89729156     0.00370
C1606       C  0.02213712  0.51555607  0.87502846    -0.08100
C1607       C  0.09586242  0.00077238  0.88628979     0.62280
H1608       H  0.04227513  0.52735349  0.82489889     0.12970
H1609       H  0.86882526  0.53390906  0.90366179     0.12980
C1610       C  0.82490666  0.56915909  0.85084247     0.62510
F1611       F  0.13284216  0.99775277  0.85882521    -0.22660
F1612       F  0.08968844  0.96911108  0.89931239    -0.19990
F1613       F  0.13570123  0.52124382  0.91170694    -0.19660
F1614       F  0.76637453  0.55381603  0.86051792    -0.19720
F1615       F  0.80324138  0.58439179  0.81992725    -0.20040
F1616       F  0.84674073  0.59448939  0.87504518    -0.22710
C1617       C  0.09030407  0.94945209  0.61362445    -0.05550
C1618       C  0.02508941  0.96330676  0.59852842     0.00380
C1619       C  0.96976730  0.96464022  0.61823841    -0.08190
C1620       C  0.98740349  0.95889765  0.65402563    -0.05570
C1621       C  0.05503271  0.94738633  0.67098698     0.00370
C1622       C  0.10101384  0.93635193  0.64744458    -0.08100
C1623       C  0.15160907  0.90695741  0.65365105     0.62280
H1624       H  0.13010749  0.94574570  0.59731535     0.12970
H1625       H  0.94589042  0.96322468  0.66857533     0.12980
C1626       C  0.89211186  0.97124188  0.60216649     0.62510
F1627       F  0.20032757  0.91156414  0.68345393    -0.22660
F1628       F  0.11259754  0.87796684  0.65557048    -0.19990
F1629       F  0.18989567  0.90210734  0.62689066    -0.19660
F1630       F  0.86723188  0.94580203  0.57832463    -0.19720
F1631       F  0.88616853  0.00164276  0.58571220    -0.20040
F1632       F  0.84778632  0.97199705  0.62675984    -0.22710
C1633       C  0.40907908  0.88333331  0.54363720    -0.05550
C1634       C  0.46761690  0.89047676  0.52787869     0.00380
C1635       C  0.50248723  0.86312225  0.51469596    -0.08190
C1636       C  0.47543474  0.83038512  0.51710223    -0.05570
C1637       C  0.41927549  0.82147400  0.53539633     0.00370
C1638       C  0.37954649  0.85069760  0.54474201    -0.08100
C1639       C  0.30212115  0.85377926  0.55093171     0.62280
H1640       H  0.38148599  0.90453414  0.55281784     0.12970
H1641       H  0.49792113  0.81179077  0.50231600     0.12980
C1642       C  0.56898376  0.86765331  0.99822772     0.62510
F1643       F  0.26599448  0.87568966  0.52701326    -0.22660
F1644       F  0.30272104  0.86724157  0.58403503    -0.19990
F1645       F  0.26142196  0.82524027  0.54755214    -0.19660
F1646       F  0.62387800  0.88096460  0.52290950    -0.19720
F1647       F  0.55546124  0.88869762  0.97023197    -0.20040
F1648       F  0.59276990  0.83769676  0.98605049    -0.22710
C1649       C  0.57731604  0.98259435  0.63994937    -0.05550
C1650       C  0.57571957  0.50801546  0.61592722     0.00380
C1651       C  0.59464757  0.54077308  0.62866323    -0.08190
C1652       C  0.61053687  0.54706665  0.66517704    -0.05570
C1653       C  0.60068849  0.52280814  0.69035841     0.00370
C1654       C  0.59606075  0.98867549  0.67644195    -0.08100
C1655       C  0.62439327  0.95810479  0.69670574     0.62280
H1656       H  0.56707653  0.95716012  0.62982363     0.12970
H1657       H  0.62604950  0.57222962  0.67343521     0.12980
C1658       C  0.59523784  0.56930537  0.60353156     0.62510
F1659       F  0.65363994  0.93557401  0.67572383    -0.22660
F1660       F  0.56990647  0.94155716  0.70858678    -0.19990
F1661       F  0.67905949  0.96672538  0.72347694    -0.19660
F1662       F  0.52771509  0.57280662  0.58389293    -0.19720
F1663       F  0.64308616  0.56244346  0.58150839    -0.20040
F1664       F  0.61475072  0.59960676  0.62067311    -0.22710
C1665       C  0.37414084  0.93759062  0.86001520    -0.05550
C1666       C  0.38539099  0.95935667  0.83300301     0.00380
C1667       C  0.40991950  0.99213630  0.84690053    -0.08190
C1668       C  0.44628674  0.99618264  0.88219634    -0.05570
C1669       C  0.44076062  0.97206281  0.90735680     0.00370
C1670       C  0.39667759  0.94400615  0.89614387    -0.08100
C1671       C  0.37213090  0.92084575  0.92227434     0.62280
H1672       H  0.34844684  0.91427736  0.85410662     0.12970
H1673       H  0.47012830  0.52027549  0.89117257     0.12980
C1674       C  0.37945355  0.02418235  0.83034767     0.62510
F1675       F  0.32987356  0.89464295  0.90620775    -0.22660
F1676       F  0.33228477  0.93866243  0.94269763    -0.19990
F1677       F  0.43039027  0.90740706  0.94333579    -0.19660
F1678       F  0.31934104  0.51781588  0.80548605    -0.19720
F1679       F  0.43036522  0.04111196  0.81615234    -0.20040
F1680       F  0.35828356  0.54514099  0.85534761    -0.22710
C1681       C  0.00327540  0.70582216  0.57906385    -0.05550
C1682       C  0.93087421  0.70982216  0.56301768     0.00380
C1683       C  0.88774427  0.72879292  0.58336863    -0.08190
C1684       C  0.91079059  0.73080096  0.61964999    -0.05570
C1685       C  0.97859454  0.72046462  0.63622652     0.00370
C1686       C  0.02742908  0.70922773  0.61520098    -0.08100
C1687       C  0.10366767  0.69951126  0.63027661     0.62280
H1688       H  0.04045633  0.69725783  0.56328554     0.12970
H1689       H  0.87551458  0.74254117  0.63524608     0.12980
C1690       C  0.82159103  0.75036519  0.57152411     0.62510
F1691       F  0.13988302  0.68719149  0.60494632    -0.22660
F1692       F  0.10316022  0.67466550  0.65445050    -0.19990
F1693       F  0.14112165  0.72725652  0.64596216    -0.19660
F1694       F  0.76379974  0.73694606  0.58364783    -0.19720
F1695       F  0.80212750  0.75508634  0.53643844    -0.20040
F1696       F  0.83458417  0.78218914  0.58633243    -0.22710
C1697       C  0.94660524  0.75117278  0.50408049    -0.05550
C1698       C  0.95948767  0.71627913  0.50440912     0.00380
C1699       C  0.02177187  0.70645982  0.48996991    -0.08190
C1700       C  0.05576792  0.73077544  0.97234385    -0.05570
C1701       C  0.04226278  0.76568018  0.97185450     0.00370
C1702       C  0.97982610  0.77522265  0.98590996    -0.08100
C1703       C  0.93891686  0.80830723  0.98171219     0.62280
H1704       H  0.90609729  0.76007872  0.51767562     0.12970
H1705       H  0.09675338  0.72227722  0.95886866     0.12980
C1706       C  0.05915141  0.67216714  0.49228924     0.62510
F1707       F  0.86616460  0.80232634  0.97872905    -0.22660
F1708       F  0.94528029  0.82518976  0.95217864    -0.19990
F1709       F  0.95973969  0.82862393  0.51093908    -0.19660
F1710       F  0.02636260  0.65052065  0.96628232    -0.19720
F1711       F  0.06330789  0.65772230  0.52417415    -0.20040
F1712       F  0.12956235  0.67508401  0.48779573    -0.22710
C1713       C  0.95119884  0.63641637  0.55188102    -0.05550
C1714       C  0.92252229  0.65512139  0.52176157     0.00380
C1715       C  0.90330709  0.63540254  0.48970557    -0.08190
C1716       C  0.91318788  0.60045040  0.98994410    -0.05570
C1717       C  0.94852426  0.58408098  0.51889099     0.00370
C1718       C  0.96739117  0.60199546  0.55064450    -0.08100
C1719       C  0.00296423  0.58449770  0.58332738     0.62280
H1720       H  0.96297072  0.64831195  0.57712077     0.12970
H1721       H  0.89691666  0.58551271  0.96622104     0.12980
C1722       C  0.87496698  0.64860851  0.95363050     0.62510
F1723       F  0.01395416  0.60577373  0.61236583    -0.22660
F1724       F  0.06853037  0.57228639  0.57870856    -0.19990
F1725       F  0.96032341  0.55815870  0.58994511    -0.19660
F1726       F  0.89905859  0.68024892  0.94909898    -0.19720
F1727       F  0.80141098  0.64718231  0.94739780    -0.20040
F1728       F  0.89851454  0.62924912  0.92821217    -0.22710
C1729       C  0.57824516  0.73141941  0.91482525    -0.05550
C1730       C  0.57319811  0.69682113  0.92209031     0.00380
C1731       C  0.55121399  0.67364321  0.89257049    -0.08190
C1732       C  0.53390032  0.68768703  0.85918459    -0.05570
C1733       C  0.53745327  0.72197050  0.85347913     0.00370
C1734       C  0.56196740  0.74436038  0.88142773    -0.08100
C1735       C  0.56819010  0.78213527  0.87874557     0.62280
H1736       H  0.59589312  0.74921641  0.93612490     0.12970
H1737       H  0.51772593  0.67183927  0.83619788     0.12980
C1738       C  0.55098395  0.63500706  0.89211115     0.62510
F1739       F  0.63715511  0.79298405  0.89137445    -0.22660
F1740       F  0.52414644  0.79675634  0.89927799    -0.19990
F1741       F  0.55016531  0.79329666  0.84514477    -0.19660
F1742       F  0.62044670  0.62369507  0.89792147    -0.19720
F1743       F  0.51696985  0.62200819  0.86031094    -0.20040
F1744       F  0.51376679  0.62050957  0.91491876    -0.22710
C1745       C  0.56836681  0.73530840  0.50974993    -0.05550
C1746       C  0.53782148  0.71621805  0.97920792     0.00380
C1747       C  0.46376485  0.72537331  0.96589195    -0.08190
C1748       C  0.42421785  0.74115301  0.98863904    -0.05570
C1749       C  0.45313015  0.75962697  0.51890973     0.00370
C1750       C  0.52974584  0.75724722  0.52891107    -0.08100
C1751       C  0.57623675  0.77712703  0.55876869     0.62280
H1752       H  0.62491275  0.73494250  0.51899234     0.12970
H1753       H  0.36734659  0.73900744  0.98114470     0.12980
C1754       C  0.41666324  0.72489170  0.92907715     0.62510
F1755       F  0.61536835  0.75539387  0.58168595    -0.22660
F1756       F  0.53905465  0.79769283  0.57784660    -0.19990
F1757       F  0.62389085  0.79697241  0.54512875    -0.19660
F1758       F  0.35264650  0.70856439  0.93002410    -0.19720
F1759       F  0.44163219  0.71036459  0.90201296    -0.20040
F1760       F  0.40152617  0.75774998  0.91984386    -0.22710
C1761       C  0.62697906  0.62872195  0.97037156    -0.05550
C1762       C  0.57151386  0.65247440  0.97081663     0.00380
C1763       C  0.50941301  0.64005859  0.98338535    -0.08190
C1764       C  0.51359235  0.60952778  0.00089876    -0.05570
C1765       C  0.56362192  0.58527323  0.99597636     0.00370
C1766       C  0.62392141  0.59553448  0.98182517    -0.08100
C1767       C  0.68590113  0.57229194  0.97913097     0.62280
H1768       H  0.67310439  0.63617430  0.95972307     0.12970
H1769       H  0.46873786  0.60208499  0.01282841     0.12980
C1770       C  0.43286411  0.64746697  0.96650989     0.62510
F1771       F  0.74149306  0.58858481  0.96766979    -0.22660
F1772       F  0.66324672  0.54625442  0.95570171    -0.19990
F1773       F  0.71280655  0.55973232  0.51159988    -0.19660
F1774       F  0.43044815  0.65909169  0.93369416    -0.19720
F1775       F  0.40191588  0.66946538  0.98675513    -0.20040
F1776       F  0.39042710  0.61870741  0.96197298    -0.22710
C1777       C  0.69683410  0.68566659  0.51117330    -0.05550
C1778       C  0.67288661  0.69669274  0.97668281     0.00380
C1779       C  0.73102118  0.70789455  0.95940652    -0.08190
C1780       C  0.80007344  0.71310134  0.97958776    -0.05570
C1781       C  0.82500491  0.69713326  0.51129026     0.00370
C1782       C  0.76943645  0.68224820  0.52714988    -0.08100
C1783       C  0.77860998  0.66111929  0.55987116     0.62280
H1784       H  0.65650343  0.67636555  0.52510877     0.12970
H1785       H  0.83757870  0.72682844  0.96763953     0.12980
C1786       C  0.73140172  0.71165231  0.92014661     0.62510
F1787       F  0.73099656  0.67128179  0.58100111    -0.22660
F1788       F  0.84473366  0.66267432  0.58031643    -0.19990
F1789       F  0.76352729  0.62801452  0.54989136    -0.19660
F1790       F  0.71034267  0.74317927  0.90983451    -0.19720
F1791       F  0.69242455  0.68696857  0.90006227    -0.20040
F1792       F  0.79889403  0.70870543  0.91195580    -0.22710
loop_ 
_geom_bond_atom_site_label_1 
_geom_bond_atom_site_label_2 
_geom_bond_distance 
_geom_bond_site_symmetry_2 
_ccdc_geom_bond_type 
C1          C386   1.545       .  S
C1          C402   1.631       .  S
C1          C418   1.597       .  S
C1          C434   1.638       .  S
C2          C338   1.583       .  S
C2          C354   1.614       .  S
C2          C370   1.595       .  S
C2          C437   1.598       .  S
O3           C13   1.288       .  A
O3         Ni907   1.932   1_545  S
O4           C14   1.289       .  A
O4         Ni459   1.943       .  S
O5           C15   1.279   1_545  A
O5        Ni1355   1.922   1_545  S
O6           C16   1.281       .  A
O6          Ni11   1.931       .  S
O7           C16   1.291       .  A
O7         Ni460   1.966       .  S
O8          C911   1.289       .  A
O8          Ni12   1.953       .  S
O9           C14   1.278       .  A
O9          Ni12   1.918       .  S
O10          C13   1.275       .  A
O10       Ni1356   1.908   1_545  S
Ni11        O899   1.932       .  S
Ni11        O452   1.943       .  S
Ni11       O1349   1.922       .  S
Ni11       Ni460   2.377       .  S
Ni12        O455   1.966   1_554  S
Ni12       O1354   1.908       .  S
Ni12       Ni459   2.377       .  S
C13         C421   1.502       .  S
C14         C290   1.510       .  S
C15         O904   1.289       .  A
C15         C306   1.497   1_565  S
C16         C325   1.512       .  S
O17          C27   1.281       .  A
O17        Ni473   1.920       .  S
O18          C28   1.281   1_455  A
O18        Ni921   1.922   1_545  S
O19          C29   1.282       .  A
O19         Ni25   1.917       .  S
O20          C30   1.283   1_455  A
O20       Ni1369   1.929   1_545  S
O21         C926   1.281       .  A
O21         Ni26   1.909       .  S
O22          C29   1.277   1_655  A
O22        Ni474   1.902   1_554  S
O23          C28   1.282       .  A
O23       Ni1370   1.923   1_544  S
O24          C27   1.280   1_655  A
O24         Ni26   1.918       .  S
Ni25        O465   1.920   1_554  S
Ni25        O914   1.922       .  S
Ni25       O1364   1.929   1_554  S
Ni25       Ni474   2.387   1_454  S
Ni26        O470   1.902       .  S
Ni26       O1367   1.923       .  S
Ni26       Ni473   2.387   1_655  S
C27         C242   1.473       .  S
C28         C373   1.479       .  S
C29         C274   1.481       .  S
C30         O917   1.281   1_545  A
C30         C261   1.490       .  S
C31         C213   1.587       .  S
C31         C229   1.597       .  S
C31         C293   1.639       .  S
C31         C405   1.605       .  S
C32         C194   1.564       .  S
C32         C226   1.599       .  S
C32         C245   1.583       .  S
C32         C357   1.618       .  S
C33         C149   1.578       .  S
C33         C162   1.562       .  S
C33         C178   1.610       .  S
C33         C277   1.598       .  S
C34         C114   1.619       .  S
C34         C130   1.636       .  S
C34         C181   1.635       .  S
C34         C322   1.648       .  S
O35          C45   1.288       .  A
O35         Ni43   1.952       .  S
O36          C46   1.288       .  A
O36         Ni43   1.946       .  S
O37          C47   1.275       .  A
O37         Ni43   1.900       .  S
O38          C48   1.278       .  A
O38         Ni43   1.904       .  S
O39          C48   1.281       .  A
O39         Ni44   1.918       .  S
O40          C47   1.282       .  A
O40         Ni44   1.913       .  S
O41          C46   1.282       .  A
O41         Ni44   1.932       .  S
O42          C45   1.284       .  A
O42         Ni44   1.938       .  S
Ni43        Ni44   2.388       .  S
C45          C98   1.508       .  S
C46         C133   1.499       .  S
C47         C389   1.459       .  S
C48         C210   1.469       .  S
O49          C59   1.279   1_655  A
O49         Ni57   1.901       .  S
O50          C60   1.282   1_655  A
O50         Ni57   1.904       .  S
O51          C61   1.277       .  A
O51         Ni57   1.892       .  S
O52          C62   1.271   1_655  A
O52         Ni57   1.888       .  S
O53          C62   1.287       .  A
O53         Ni58   1.925       .  S
O54          C61   1.283   1_455  A
O54         Ni58   1.925       .  S
O55          C60   1.269       .  A
O55         Ni58   1.877       .  S
O56          C59   1.273       .  A
O56         Ni58   1.884       .  S
Ni57        Ni58   2.384   1_655  S
C59          C82   1.448   1_455  S
C60         C165   1.469       .  S
C61         C341   1.492       .  S
C62         C197   1.487       .  S
C63          C66   1.630       .  S
C63         C101   1.643       .  S
C63         C117   1.625       .  S
C63         C309   1.624       .  S
C64          C69   1.586       .  S
C64          C85   1.560       .  S
C64         C146   1.578       .  S
C64         C258   1.608       .  S
C65          C66   1.429       .  A
C65          C70   1.423       .  A
C65          H72   1.067       .  S
C66          C67   1.460       .  A
C67          C74   1.526   1_545  S
C67          C68   1.397       .  A
C68          C69   1.401       .  A
C68          H73   1.076   1_545  S
C69          C70   1.447       .  A
C70          C71   1.532       .  S
C71          F75   1.386       .  S
C71          F76   1.363       .  S
C71          F77   1.378       .  S
C74          F79   1.371   1_565  S
C74          F80   1.385       .  S
C74         F974   1.384       .  S
F78         C970   1.384       .  S
C81          C82   1.391   1_455  A
C81          C86   1.400       .  A
C81          H88   1.085       .  S
C82          C83   1.404       .  A
C83          C90   1.518       .  S
C83          C84   1.390       .  A
C84          C85   1.410       .  A
C84          H89   1.063       .  S
C85          C86   1.445   1_655  A
C86          C87   1.528       .  S
C87          F91   1.384       .  S
C87          F92   1.383       .  S
C87          F93   1.370       .  S
C90          F94   1.380       .  S
C90          F95   1.380   1_655  S
C90          F96   1.385       .  S
C97          C98   1.395       .  A
C97         C102   1.427       .  A
C97         H104   1.082       .  S
C98          C99   1.406       .  A
C99         C106   1.518       .  S
C99         C100   1.418       .  A
C100        C101   1.431       .  A
C100        H105   1.063       .  S
C101        C102   1.452       .  A
C102        C103   1.515       .  S
C103        F107   1.372       .  S
C103        F108   1.357       .  S
C103        F109   1.376       .  S
C106        F110   1.380       .  S
C106        F111   1.383       .  S
C106        F112   1.385       .  S
C113        C118   1.422       .  A
C113       C1010   1.423   1_545  A
C113        H120   1.073       .  S
C114        C115   1.439       .  A
C114       C1009   1.423       .  A
C115        C122   1.534       .  S
C115        C116   1.427       .  A
C116       C1013   1.407       .  A
C116        H121   1.045       .  S
C117        C118   1.437       .  A
C117       C1012   1.407   1_545  A
C118        C119   1.524       .  S
C119        F123   1.376       .  S
C119        F124   1.371       .  S
C119        F125   1.381       .  S
C122        F126   1.380       .  S
C122        F127   1.370       .  S
C122        F128   1.367       .  S
C129        C130   1.422       .  A
C129        C134   1.403       .  A
C129        H136   1.056       .  S
C130        C131   1.473       .  A
C131        C138   1.533       .  S
C131        C132   1.431       .  A
C132        C133   1.394       .  A
C132        H137   1.079       .  S
C133        C134   1.403       .  A
C134        C135   1.517       .  S
C135        F139   1.382       .  S
C135        F140   1.380       .  S
C135        F141   1.378       .  S
C138        F142   1.365       .  S
C138        F143   1.365       .  S
C138        F144   1.386       .  S
C145        C150   1.408       .  A
C145       C1042   1.413       .  A
C145        H152   1.080       .  S
C146        C147   1.426       .  A
C146       C1041   1.413   1_545  A
C147        C154   1.527       .  S
C147       C1044   1.390   1_645  A
C148        C149   1.407       .  A
C148       C1043   1.390   1_455  A
C148        H153   1.071       .  S
C149        C150   1.457   1_455  A
C150        C151   1.542       .  S
C151        F155   1.384       .  S
C151        F156   1.387   1_655  S
C151        F157   1.362   1_655  S
C154        F158   1.371       .  S
C154        F159   1.374       .  S
C154       F1056   1.385       .  S
F160       C1050   1.385       .  S
C161        C162   1.423       .  A
C161        C166   1.393       .  A
C161        H168   1.066       .  S
C162        C163   1.455   1_455  A
C163        C170   1.537       .  S
C163        C164   1.401       .  A
C164        C165   1.390   1_655  A
C164        H169   1.084       .  S
C165        C166   1.410       .  A
C166        C167   1.529       .  S
C167        F171   1.384       .  S
C167        F172   1.383       .  S
C167        F173   1.384       .  S
C170        F174   1.381       .  S
C170        F175   1.368       .  S
C170        F176   1.387       .  S
C177        C178   1.405       .  A
C177        C182   1.410       .  A
C177        H184   1.063       .  S
C178        C179   1.423       .  A
C179        C186   1.520       .  S
C179        C180   1.428       .  A
C180        C181   1.428       .  A
C180        H185   1.061       .  S
C181        C182   1.453       .  A
C182        C183   1.524       .  S
C183        F187   1.385       .  S
C183        F188   1.381       .  S
C183        F189   1.368       .  S
C186        F190   1.370       .  S
C186        F191   1.383       .  S
C186        F192   1.383       .  S
C193        C194   1.416       .  A
C193        C198   1.405   1_455  A
C193        H200   1.072   1_455  S
C194        C195   1.445       .  A
C195        C202   1.530       .  S
C195        C196   1.404       .  A
C196        C197   1.396       .  A
C196        H201   1.085       .  S
C197        C198   1.421   1_455  A
C198        C199   1.525       .  S
C199        F203   1.385       .  S
C199        F204   1.381       .  S
C199        F205   1.384       .  S
C202        F206   1.369       .  S
C202        F207   1.379       .  S
C202        F208   1.386       .  S
C209        C210   1.389       .  A
C209        C214   1.402       .  A
C209        H216   1.084       .  S
C210        C211   1.404       .  A
C211        C218   1.519       .  S
C211        C212   1.403       .  A
C212        C213   1.411       .  A
C212        H217   1.048       .  S
C213        C214   1.461       .  A
C214        C215   1.536       .  S
C215        F219   1.386       .  S
C215        F220   1.380       .  S
C215        F221   1.365       .  S
C218        F222   1.377       .  S
C218        F223   1.383       .  S
C218        F224   1.384       .  S
C225        C230   1.414       .  A
C225        C674   1.420   1_554  A
C225        H232   1.076       .  S
C226        C227   1.447       .  A
C226        C673   1.420       .  A
C227        C234   1.532       .  S
C227        C228   1.409       .  A
C228        C677   1.414       .  A
C228        H233   1.078       .  S
C229        C230   1.443       .  A
C229        C676   1.414   1_554  A
C230        C231   1.525       .  S
C231        F235   1.386       .  S
C231        F236   1.380       .  S
C231        F237   1.362       .  S
C234        F238   1.366       .  S
C234        F239   1.385       .  S
C234        F240   1.374       .  S
C241        C242   1.386       .  A
C241        C246   1.411       .  A
C241        H248   1.087       .  S
C242        C691   1.402       .  A
C243        C250   1.517       .  S
C243        C690   1.402   1_554  A
C243        C692   1.404   1_554  A
C244        C245   1.424       .  A
C244        C691   1.404       .  A
C244        H697   1.080       .  S
C245        C246   1.466       .  A
C246        C247   1.533       .  S
C247        F251   1.382   1_455  S
C247        F252   1.361       .  S
C247        F253   1.387       .  S
H249        C692   1.080   1_554  S
C250        F254   1.383       .  S
C250        F255   1.382       .  S
C250        F256   1.385       .  S
C257        C258   1.423   1_455  A
C257        C262   1.409       .  A
C257        H264   1.065       .  S
C258        C259   1.453       .  A
C259        C266   1.530       .  S
C259        C260   1.409       .  A
C260        C261   1.396       .  A
C260        H265   1.086       .  S
C261        C262   1.409   1_655  A
C262       C1159   1.521       .  S
C263       C1158   1.521       .  S
C263        F267   1.385       .  S
C263        F268   1.384       .  S
C263       F1165   1.382       .  S
C266        F270   1.381       .  S
C266        F271   1.360       .  S
C266        F272   1.378       .  S
F269       C1159   1.382       .  S
C273        C274   1.398       .  A
C273        C278   1.410       .  A
C273        H280   1.081       .  S
C274        C275   1.410   1_455  A
C275        C282   1.526       .  S
C275        C276   1.400       .  A
C276        C277   1.422   1_655  A
C276        H281   1.064       .  S
C277        C278   1.440       .  A
C278        C279   1.518       .  S
C279        F283   1.359       .  S
C279        F284   1.381       .  S
C279        F285   1.385       .  S
C282        F286   1.384       .  S
C282        F287   1.380       .  S
C282        F288   1.385       .  S
C289        C290   1.395       .  A
C289        C294   1.420       .  A
C289        H296   1.086       .  S
C290        C291   1.415       .  A
C291        C746   1.529   1_554  S
C291        C292   1.412       .  A
C292        C293   1.433       .  A
C292        H297   1.067       .  S
C293        C294   1.468       .  A
C294        C295   1.540       .  S
C295        F299   1.386       .  S
C295        F300   1.385       .  S
C295        F301   1.364       .  S
C298        C739   1.529       .  S
C298        F303   1.380       .  S
C298        F304   1.385       .  S
C298        F750   1.383       .  S
F302        C746   1.383   1_554  S
C305        C310   1.419       .  A
C305       C1202   1.392       .  A
C305        H312   1.085       .  S
C306        C307   1.410       .  A
C306       C1201   1.392   1_545  A
C307        C314   1.519       .  S
C307        C308   1.418       .  A
C308        C309   1.428       .  A
C308        H313   1.071       .  S
C309       C1206   1.451   1_545  A
C310        C311   1.517       .  S
C310       C1205   1.451       .  A
C311        F315   1.387       .  S
C311        F316   1.379       .  S
C311        F317   1.372       .  S
C314        F318   1.383       .  S
C314        F319   1.383       .  S
C314        F320   1.385       .  S
C321        C322   1.423       .  A
C321        C326   1.414       .  A
C321        H328   1.050       .  S
C322        C323   1.447       .  A
C323        C330   1.517       .  S
C323        C324   1.431       .  A
C324        C325   1.406       .  A
C324       H1225   1.084       .  S
C325        C326   1.409       .  A
C326        C327   1.521       .  S
C327        F331   1.383       .  S
C327        F332   1.382       .  S
C327        F333   1.376       .  S
H329       C1220   1.084   1_545  S
C330        F335   1.378       .  S
C330       F1230   1.380       .  S
C330       F1232   1.386       .  S
F334       C1226   1.380       .  S
F336       C1226   1.386       .  S
C337        C338   1.420   1_455  A
C337        C342   1.405       .  A
C337        H344   1.070       .  S
C338        C339   1.445       .  A
C339        C346   1.537       .  S
C339        C340   1.404       .  A
C340        C341   1.405       .  A
C340        H345   1.085       .  S
C341        C342   1.413   1_655  A
C342        C343   1.521       .  S
C343        F347   1.384       .  S
C343        F348   1.384       .  S
C343        F349   1.383       .  S
C346        F350   1.381       .  S
C346        F351   1.369       .  S
C346        F352   1.386       .  S
C353        C354   1.415       .  A
C353        C806   1.415   1_554  A
C353        H360   1.069       .  S
C354        C355   1.452   1_654  A
C355        C362   1.543       .  S
C355        C804   1.418       .  A
C356        C357   1.418       .  A
C356        C803   1.418       .  A
C356        H361   1.068       .  S
C357        C358   1.444   1_455  A
C358        C359   1.534       .  S
C358        C801   1.415       .  A
C359        F363   1.387       .  S
C359        F364   1.370       .  S
C359        F813   1.381       .  S
C362        F367   1.371   1_556  S
C362        F368   1.386       .  S
C362        F814   1.376       .  S
F365        C807   1.381   1_554  S
F366        C810   1.376       .  S
C369        C370   1.431       .  A
C369        C374   1.411       .  A
C369        H376   1.069       .  S
C370        C371   1.451   1_554  A
C371        C826   1.520       .  S
C371        C820   1.409       .  A
C372        C819   1.409       .  A
C372        C821   1.385       .  A
C372        H377   1.085       .  S
C373        C374   1.404       .  A
C373        C820   1.385   1_554  A
C374        C375   1.519   1_655  S
C375        F379   1.385       .  S
C375        F380   1.382       .  S
C375        F381   1.380   1_455  S
C378        C819   1.520       .  S
C378        F382   1.366       .  S
C378        F383   1.378       .  S
C378        F384   1.381       .  S
C385        C386   1.422       .  A
C385        C390   1.395       .  A
C385        H392   1.086       .  S
C386        C387   1.460       .  A
C387        C394   1.542       .  S
C387        C388   1.413       .  A
C388        C389   1.394       .  A
C388        H393   1.083       .  S
C389        C390   1.405       .  A
C390        C391   1.519       .  S
C391        F395   1.380       .  S
C391        F396   1.381       .  S
C391        F397   1.378       .  S
C394        F398   1.381       .  S
C394        F399   1.381       .  S
C394        F400   1.367       .  S
C401        C406   1.428       .  A
C401        C850   1.430   1_554  A
C401        H408   1.072       .  S
C402        C403   1.464       .  A
C402        C849   1.430       .  A
C403        C410   1.550       .  S
C403        C404   1.403       .  A
C404        C853   1.402       .  A
C404        H409   1.072       .  S
C405        C406   1.445       .  A
C405        C852   1.402   1_554  A
C406        C407   1.533       .  S
C407        F411   1.382       .  S
C407        F412   1.377       .  S
C407        F413   1.383       .  S
C410        F414   1.384       .  S
C410        F415   1.353       .  S
C410        F416   1.386       .  S
C417        C418   1.425       .  A
C417        C422   1.411       .  A
C417        H424   1.078       .  S
C418        C419   1.446       .  A
C419        C426   1.521       .  S
C419        C420   1.405       .  A
C420        C421   1.396       .  A
C420        H425   1.085       .  S
C421        C422   1.420       .  A
C422        C423   1.522       .  S
C423        F427   1.383       .  S
C423        F428   1.383       .  S
C423        F877   1.384       .  S
C426        F430   1.363       .  S
C426        F431   1.372       .  S
C426        F432   1.389       .  S
F429        C871   1.384   1_554  S
C433        C438   1.419       .  A
C433        C882   1.421   1_554  A
C433        H440   1.084       .  S
C434        C435   1.466       .  A
C434        C881   1.421       .  A
C435        C442   1.542       .  S
C435        C436   1.418       .  A
C436        C885   1.410       .  A
C436        H441   1.073       .  S
C437        C438   1.447       .  A
C437        C884   1.410   1_554  A
C438        C439   1.529       .  S
C439        F443   1.385       .  S
C439        F444   1.365       .  S
C439        F445   1.383       .  S
C442        F446   1.370       .  S
C442        F447   1.372       .  S
C442        F448   1.382       .  S
C449        C834   1.545       .  S
C449        C850   1.631       .  S
C449        C866   1.597       .  S
C449        C882   1.638       .  S
C450        C786   1.583       .  S
C450        C802   1.614       .  S
C450        C818   1.595       .  S
C450        C885   1.598       .  S
O451        C461   1.288       .  A
O451      Ni1355   1.932   1_545  S
O452        C462   1.289       .  A
O453        C463   1.279   1_545  A
O453       Ni907   1.922   1_545  S
O454        C464   1.281       .  A
O454       Ni459   1.931   1_556  S
O455        C464   1.291       .  A
O456       C1359   1.289       .  A
O456       Ni460   1.953       .  S
O457        C462   1.278       .  A
O457       Ni460   1.918       .  S
O458        C461   1.275       .  A
O458       Ni908   1.908   1_545  S
Ni459      O1347   1.932       .  S
Ni459       O901   1.922       .  S
Ni460       O906   1.908       .  S
C461        C869   1.502   1_554  S
C462        C738   1.510       .  S
C463       O1352   1.289       .  A
C463        C754   1.497   1_565  S
C464        C773   1.512       .  S
O465        C475   1.281       .  A
O466        C476   1.281   1_455  A
O466      Ni1369   1.922   1_545  S
O467        C477   1.282       .  A
O467       Ni473   1.917       .  S
O468        C478   1.283   1_455  A
O468       Ni921   1.929   1_546  S
O469       C1374   1.281       .  A
O469       Ni474   1.909       .  S
O470        C477   1.277   1_655  A
O471        C476   1.282       .  A
O471       Ni922   1.923   1_545  S
O472        C475   1.280   1_655  A
O472       Ni474   1.918       .  S
Ni473      O1362   1.922       .  S
Ni473       O916   1.929       .  S
Ni474       O919   1.923   1_556  S
C475        C690   1.473       .  S
C476        C821   1.479       .  S
C477        C722   1.481       .  S
C478       O1365   1.281   1_545  A
C478        C709   1.490       .  S
C479        C661   1.587       .  S
C479        C677   1.597       .  S
C479        C741   1.639       .  S
C479        C853   1.605       .  S
C480        C642   1.564       .  S
C480        C674   1.599       .  S
C480        C693   1.583       .  S
C480        C805   1.618       .  S
C481        C597   1.578       .  S
C481        C610   1.562       .  S
C481        C626   1.610       .  S
C481        C725   1.598       .  S
C482        C562   1.619       .  S
C482        C578   1.636       .  S
C482        C629   1.635       .  S
C482        C770   1.648       .  S
O483        C493   1.288       .  A
O483       Ni491   1.952       .  S
O484        C494   1.288       .  A
O484       Ni491   1.946       .  S
O485        C495   1.275       .  A
O485       Ni491   1.900       .  S
O486        C496   1.278       .  A
O486       Ni491   1.904       .  S
O487        C496   1.281       .  A
O487       Ni492   1.918       .  S
O488        C495   1.282       .  A
O488       Ni492   1.913       .  S
O489        C494   1.282       .  A
O489       Ni492   1.932       .  S
O490        C493   1.284       .  A
O490       Ni492   1.938       .  S
Ni491      Ni492   2.388       .  S
C493        C546   1.508       .  S
C494        C581   1.499       .  S
C495        C837   1.459       .  S
C496        C658   1.469       .  S
O497        C507   1.279   1_655  A
O497       Ni505   1.901       .  S
O498        C508   1.282   1_655  A
O498       Ni505   1.904       .  S
O499        C509   1.277       .  A
O499       Ni505   1.892       .  S
O500        C510   1.271   1_655  A
O500       Ni505   1.888       .  S
O501        C510   1.287       .  A
O501       Ni506   1.925       .  S
O502        C509   1.283   1_455  A
O502       Ni506   1.925       .  S
O503        C508   1.269       .  A
O503       Ni506   1.877       .  S
O504        C507   1.273       .  A
O504       Ni506   1.884       .  S
Ni505      Ni506   2.384   1_655  S
C507        C530   1.448   1_455  S
C508        C613   1.469       .  S
C509        C789   1.492       .  S
C510        C645   1.487       .  S
C511        C514   1.630       .  S
C511        C549   1.643       .  S
C511        C565   1.625       .  S
C511        C757   1.624       .  S
C512        C517   1.586       .  S
C512        C533   1.560       .  S
C512        C594   1.578       .  S
C512        C706   1.608       .  S
C513        C514   1.429       .  A
C513        C518   1.423       .  A
C513        H520   1.067       .  S
C514        C515   1.460       .  A
C515        C522   1.526   1_545  S
C515        C516   1.397       .  A
C516        C517   1.401       .  A
C516        H521   1.076   1_545  S
C517        C518   1.447       .  A
C518        C519   1.532       .  S
C519        F523   1.386       .  S
C519        F524   1.363       .  S
C519        F525   1.378       .  S
C522       F1422   1.384       .  S
C522        F527   1.371   1_565  S
C522        F528   1.385       .  S
F526       C1418   1.384       .  S
C529        C530   1.391   1_455  A
C529        C534   1.400       .  A
C529        H536   1.085       .  S
C530        C531   1.404       .  A
C531        C538   1.518       .  S
C531        C532   1.390       .  A
C532        C533   1.410       .  A
C532        H537   1.063       .  S
C533        C534   1.445   1_655  A
C534        C535   1.528       .  S
C535        F539   1.384       .  S
C535        F540   1.383       .  S
C535        F541   1.370       .  S
C538        F542   1.380       .  S
C538        F543   1.380   1_655  S
C538        F544   1.385       .  S
C545        C546   1.395       .  A
C545        C550   1.427       .  A
C545        H552   1.082       .  S
C546        C547   1.406       .  A
C547        C554   1.518       .  S
C547        C548   1.418       .  A
C548        C549   1.431       .  A
C548        H553   1.063       .  S
C549        C550   1.452       .  A
C550        C551   1.515       .  S
C551        F555   1.372       .  S
C551        F556   1.357       .  S
C551        F557   1.376       .  S
C554        F558   1.380       .  S
C554        F559   1.383       .  S
C554        F560   1.385       .  S
C561       C1458   1.423   1_545  A
C561        C566   1.422       .  A
C561        H568   1.073       .  S
C562       C1457   1.423       .  A
C562        C563   1.439       .  A
C563        C570   1.534       .  S
C563        C564   1.427       .  A
C564       C1461   1.407       .  A
C564        H569   1.045       .  S
C565       C1460   1.407   1_545  A
C565        C566   1.437       .  A
C566        C567   1.524       .  S
C567        F571   1.376       .  S
C567        F572   1.371       .  S
C567        F573   1.381       .  S
C570        F574   1.380       .  S
C570        F575   1.370       .  S
C570        F576   1.367       .  S
C577        C578   1.422       .  A
C577        C582   1.403       .  A
C577        H584   1.056       .  S
C578        C579   1.473       .  A
C579        C586   1.533       .  S
C579        C580   1.431       .  A
C580        C581   1.394       .  A
C580        H585   1.079       .  S
C581        C582   1.403       .  A
C582        C583   1.517       .  S
C583        F587   1.382       .  S
C583        F588   1.380       .  S
C583        F589   1.378       .  S
C586        F590   1.365       .  S
C586        F591   1.365       .  S
C586        F592   1.386       .  S
C593       C1490   1.413       .  A
C593        C598   1.408       .  A
C593        H600   1.080       .  S
C594       C1489   1.413   1_545  A
C594        C595   1.426       .  A
C595        C602   1.527       .  S
C595       C1492   1.390   1_645  A
C596       C1491   1.390   1_455  A
C596        C597   1.407       .  A
C596        H601   1.071       .  S
C597        C598   1.457   1_455  A
C598        C599   1.542       .  S
C599        F603   1.384       .  S
C599        F604   1.387   1_655  S
C599        F605   1.362   1_655  S
C602        F606   1.371       .  S
C602        F607   1.374       .  S
C602       F1504   1.385       .  S
F608       C1498   1.385       .  S
C609        C610   1.423       .  A
C609        C614   1.393       .  A
C609        H616   1.066       .  S
C610        C611   1.455   1_455  A
C611        C618   1.537       .  S
C611        C612   1.401       .  A
C612        C613   1.390   1_655  A
C612        H617   1.084       .  S
C613        C614   1.410       .  A
C614        C615   1.529       .  S
C615        F619   1.384       .  S
C615        F620   1.383       .  S
C615        F621   1.384       .  S
C618        F622   1.381       .  S
C618        F623   1.368       .  S
C618        F624   1.387       .  S
C625        C626   1.405       .  A
C625        C630   1.410       .  A
C625        H632   1.063       .  S
C626        C627   1.423       .  A
C627        C634   1.520       .  S
C627        C628   1.428       .  A
C628        C629   1.428       .  A
C628        H633   1.061       .  S
C629        C630   1.453       .  A
C630        C631   1.524       .  S
C631        F635   1.385       .  S
C631        F636   1.381       .  S
C631        F637   1.368       .  S
C634        F638   1.370       .  S
C634        F639   1.383       .  S
C634        F640   1.383       .  S
C641        C642   1.416       .  A
C641        C646   1.405   1_455  A
C641        H648   1.072   1_455  S
C642        C643   1.445       .  A
C643        C650   1.530       .  S
C643        C644   1.404       .  A
C644        C645   1.396       .  A
C644        H649   1.085       .  S
C645        C646   1.421   1_455  A
C646        C647   1.525       .  S
C647        F651   1.385       .  S
C647        F652   1.381       .  S
C647        F653   1.384       .  S
C650        F654   1.369       .  S
C650        F655   1.379       .  S
C650        F656   1.386       .  S
C657        C658   1.389       .  A
C657        C662   1.402       .  A
C657        H664   1.084       .  S
C658        C659   1.404       .  A
C659        C666   1.519       .  S
C659        C660   1.403       .  A
C660        C661   1.411       .  A
C660        H665   1.048       .  S
C661        C662   1.461       .  A
C662        C663   1.536       .  S
C663        F667   1.386       .  S
C663        F668   1.380       .  S
C663        F669   1.365       .  S
C666        F670   1.377       .  S
C666        F671   1.383       .  S
C666        F672   1.384       .  S
C673        C678   1.414       .  A
C673        H680   1.076       .  S
C674        C675   1.447       .  A
C675        C682   1.532       .  S
C675        C676   1.409       .  A
C676        H681   1.078       .  S
C677        C678   1.443       .  A
C678        C679   1.525       .  S
C679        F683   1.386       .  S
C679        F684   1.380       .  S
C679        F685   1.362       .  S
C682        F686   1.366       .  S
C682        F687   1.385       .  S
C682        F688   1.374       .  S
C689        C690   1.386       .  A
C689        C694   1.411       .  A
C689        H696   1.087       .  S
C691        C698   1.517       .  S
C692        C693   1.424       .  A
C693        C694   1.466       .  A
C694        C695   1.533       .  S
C695        F699   1.382   1_455  S
C695        F700   1.361       .  S
C695        F701   1.387       .  S
C698        F702   1.383       .  S
C698        F703   1.382       .  S
C698        F704   1.385       .  S
C705        C706   1.423   1_455  A
C705        C710   1.409       .  A
C705        H712   1.065       .  S
C706        C707   1.453       .  A
C707        C714   1.530       .  S
C707        C708   1.409       .  A
C708        C709   1.396       .  A
C708        H713   1.086       .  S
C709        C710   1.409   1_655  A
C710       C1607   1.521       .  S
C711       C1606   1.521       .  S
C711        F715   1.385       .  S
C711        F716   1.384       .  S
C711       F1613   1.382       .  S
C714        F718   1.381       .  S
C714        F719   1.360       .  S
C714        F720   1.378       .  S
F717       C1607   1.382       .  S
C721        C722   1.398       .  A
C721        C726   1.410       .  A
C721        H728   1.081       .  S
C722        C723   1.410   1_455  A
C723        C730   1.526       .  S
C723        C724   1.400       .  A
C724        C725   1.422   1_655  A
C724        H729   1.064       .  S
C725        C726   1.440       .  A
C726        C727   1.518       .  S
C727        F731   1.359       .  S
C727        F732   1.381       .  S
C727        F733   1.385       .  S
C730        F734   1.384       .  S
C730        F735   1.380       .  S
C730        F736   1.385       .  S
C737        C738   1.395       .  A
C737        C742   1.420       .  A
C737        H744   1.086       .  S
C738        C739   1.415       .  A
C739        C740   1.412       .  A
C740        C741   1.433       .  A
C740        H745   1.067       .  S
C741        C742   1.468       .  A
C742        C743   1.540       .  S
C743        F747   1.386       .  S
C743        F748   1.385       .  S
C743        F749   1.364       .  S
C746        F751   1.380       .  S
C746        F752   1.385       .  S
C753       C1650   1.392       .  A
C753        C758   1.419       .  A
C753        H760   1.085       .  S
C754       C1649   1.392   1_545  A
C754        C755   1.410       .  A
C755        C762   1.519       .  S
C755        C756   1.418       .  A
C756        C757   1.428       .  A
C756        H761   1.071       .  S
C757       C1654   1.451   1_545  A
C758        C759   1.517       .  S
C758       C1653   1.451       .  A
C759        F763   1.387       .  S
C759        F764   1.379       .  S
C759        F765   1.372       .  S
C762        F766   1.383       .  S
C762        F767   1.383       .  S
C762        F768   1.385       .  S
C769        C770   1.423       .  A
C769        C774   1.414       .  A
C769        H776   1.050       .  S
C770        C771   1.447       .  A
C771        C778   1.517       .  S
C771        C772   1.431       .  A
C772        C773   1.406       .  A
C772       H1673   1.084       .  S
C773        C774   1.409       .  A
C774        C775   1.521       .  S
C775        F779   1.383       .  S
C775        F780   1.382       .  S
C775        F781   1.376       .  S
H777       C1668   1.084   1_545  S
C778       F1678   1.380       .  S
C778        F783   1.378       .  S
C778       F1680   1.386       .  S
F782       C1674   1.380       .  S
F784       C1674   1.386       .  S
C785        C786   1.420   1_455  A
C785        C790   1.405       .  A
C785        H792   1.070       .  S
C786        C787   1.445       .  A
C787        C794   1.537       .  S
C787        C788   1.404       .  A
C788        C789   1.405       .  A
C788        H793   1.085       .  S
C789        C790   1.413   1_655  A
C790        C791   1.521       .  S
C791        F795   1.384       .  S
C791        F796   1.384       .  S
C791        F797   1.383       .  S
C794        F798   1.381       .  S
C794        F799   1.369       .  S
C794        F800   1.386       .  S
C801        C802   1.415       .  A
C801        H808   1.069       .  S
C802        C803   1.452   1_655  A
C803        C810   1.543       .  S
C804        C805   1.418       .  A
C804        H809   1.068       .  S
C805        C806   1.444   1_455  A
C806        C807   1.534       .  S
C807        F811   1.387       .  S
C807        F812   1.370       .  S
C810        F815   1.371       .  S
C810        F816   1.386       .  S
C817        C818   1.431       .  A
C817        C822   1.411       .  A
C817        H824   1.069       .  S
C818        C819   1.451       .  A
C820        H825   1.085       .  S
C821        C822   1.404       .  A
C822        C823   1.519   1_655  S
C823        F827   1.385       .  S
C823        F828   1.382       .  S
C823        F829   1.380   1_455  S
C826        F830   1.366       .  S
C826        F831   1.378       .  S
C826        F832   1.381       .  S
C833        C834   1.422       .  A
C833        C838   1.395       .  A
C833        H840   1.086       .  S
C834        C835   1.460       .  A
C835        C842   1.542       .  S
C835        C836   1.413       .  A
C836        C837   1.394       .  A
C836        H841   1.083       .  S
C837        C838   1.405       .  A
C838        C839   1.519       .  S
C839        F843   1.380       .  S
C839        F844   1.381       .  S
C839        F845   1.378       .  S
C842        F846   1.381       .  S
C842        F847   1.381       .  S
C842        F848   1.367       .  S
C849        C854   1.428       .  A
C849        H856   1.072       .  S
C850        C851   1.464       .  A
C851        C858   1.550       .  S
C851        C852   1.403       .  A
C852        H857   1.072       .  S
C853        C854   1.445       .  A
C854        C855   1.533       .  S
C855        F859   1.382       .  S
C855        F860   1.377       .  S
C855        F861   1.383       .  S
C858        F862   1.384       .  S
C858        F863   1.353       .  S
C858        F864   1.386       .  S
C865        C866   1.425       .  A
C865        C870   1.411       .  A
C865        H872   1.078       .  S
C866        C867   1.446       .  A
C867        C874   1.521       .  S
C867        C868   1.405   1_556  A
C868        C869   1.396   1_554  A
C868        H873   1.085       .  S
C869        C870   1.420       .  A
C870        C871   1.522       .  S
C871        F875   1.383       .  S
C871        F876   1.383       .  S
C874        F878   1.363       .  S
C874        F879   1.372       .  S
C874        F880   1.389       .  S
C881        C886   1.419       .  A
C881        H888   1.084       .  S
C882        C883   1.466       .  A
C883        C890   1.542       .  S
C883        C884   1.418       .  A
C884        H889   1.073       .  S
C885        C886   1.447       .  A
C886        C887   1.529       .  S
C887        F891   1.385       .  S
C887        F892   1.365       .  S
C887        F893   1.383       .  S
C890        F894   1.370       .  S
C890        F895   1.372       .  S
C890        F896   1.382       .  S
C897       C1282   1.545       .  S
C897       C1298   1.631       .  S
C897       C1314   1.597       .  S
C897       C1330   1.638       .  S
C898       C1234   1.583       .  S
C898       C1250   1.614       .  S
C898       C1266   1.595       .  S
C898       C1333   1.598       .  S
O899        C909   1.288       .  A
O900        C910   1.289       .  A
O900      Ni1355   1.943       .  S
O901        C911   1.279       .  A
O902        C912   1.281       .  A
O902       Ni907   1.931       .  S
O903        C912   1.291       .  A
O903      Ni1356   1.966       .  S
O904       Ni908   1.953       .  S
O905        C910   1.278       .  A
O905       Ni908   1.918       .  S
O906        C909   1.275       .  A
Ni907      O1348   1.943       .  S
Ni907     Ni1356   2.377       .  S
Ni908      O1351   1.966   1_554  S
Ni908     Ni1355   2.377       .  S
C909       C1317   1.502       .  S
C910       C1186   1.510       .  S
C911       C1202   1.497       .  S
C912       C1221   1.512       .  S
O913        C923   1.281       .  A
O913      Ni1369   1.920       .  S
O914        C924   1.281   1_455  A
O915        C925   1.282       .  A
O915       Ni921   1.917       .  S
O916        C926   1.283   1_455  A
O917       Ni922   1.909       .  S
O918        C925   1.277   1_655  A
O918      Ni1370   1.902   1_554  S
O919        C924   1.282       .  A
O920        C923   1.280   1_655  A
O920       Ni922   1.918       .  S
Ni921      O1361   1.920   1_554  S
Ni921     Ni1370   2.387   1_454  S
Ni922      O1366   1.902       .  S
Ni922     Ni1369   2.387   1_655  S
C923       C1138   1.473       .  S
C924       C1269   1.479       .  S
C925       C1170   1.481       .  S
C926       C1157   1.490       .  S
C927       C1109   1.587       .  S
C927       C1125   1.597       .  S
C927       C1189   1.639       .  S
C927       C1301   1.605       .  S
C928       C1090   1.564       .  S
C928       C1122   1.599       .  S
C928       C1141   1.583       .  S
C928       C1253   1.618       .  S
C929       C1045   1.578       .  S
C929       C1058   1.562       .  S
C929       C1074   1.610       .  S
C929       C1173   1.598       .  S
C930       C1010   1.619       .  S
C930       C1026   1.636       .  S
C930       C1077   1.635       .  S
C930       C1218   1.648       .  S
O931        C941   1.288       .  A
O931       Ni939   1.952       .  S
O932        C942   1.288       .  A
O932       Ni939   1.946       .  S
O933        C943   1.275       .  A
O933       Ni939   1.900       .  S
O934        C944   1.278       .  A
O934       Ni939   1.904       .  S
O935        C944   1.281       .  A
O935       Ni940   1.918       .  S
O936        C943   1.282       .  A
O936       Ni940   1.913       .  S
O937        C942   1.282       .  A
O937       Ni940   1.932       .  S
O938        C941   1.284       .  A
O938       Ni940   1.938       .  S
Ni939      Ni940   2.388       .  S
C941        C994   1.508       .  S
C942       C1029   1.499       .  S
C943       C1285   1.459       .  S
C944       C1106   1.469       .  S
O945        C955   1.279   1_655  A
O945       Ni953   1.901       .  S
O946        C956   1.282   1_655  A
O946       Ni953   1.904       .  S
O947        C957   1.277       .  A
O947       Ni953   1.892       .  S
O948        C958   1.271   1_655  A
O948       Ni953   1.888       .  S
O949        C958   1.287       .  A
O949       Ni954   1.925       .  S
O950        C957   1.283   1_455  A
O950       Ni954   1.925       .  S
O951        C956   1.269       .  A
O951       Ni954   1.877       .  S
O952        C955   1.273       .  A
O952       Ni954   1.884       .  S
Ni953      Ni954   2.384   1_655  S
C955        C978   1.448   1_455  S
C956       C1061   1.469       .  S
C957       C1237   1.492       .  S
C958       C1093   1.487       .  S
C959        C962   1.630       .  S
C959        C997   1.643       .  S
C959       C1013   1.625       .  S
C959       C1205   1.624       .  S
C960        C965   1.586       .  S
C960        C981   1.560       .  S
C960       C1042   1.578       .  S
C960       C1154   1.608       .  S
C961        C962   1.429       .  A
C961        C966   1.423       .  A
C961        H968   1.067       .  S
C962        C963   1.460       .  A
C963        C970   1.526       .  S
C963        C964   1.397       .  A
C964        C965   1.401       .  A
C964        H969   1.076       .  S
C965        C966   1.447       .  A
C966        C967   1.532       .  S
C967        F971   1.386       .  S
C967        F972   1.363       .  S
C967        F973   1.378       .  S
C970        F975   1.371       .  S
C970        F976   1.385       .  S
C977        C978   1.391   1_455  A
C977        C982   1.400       .  A
C977        H984   1.085       .  S
C978        C979   1.404       .  A
C979        C986   1.518       .  S
C979        C980   1.390       .  A
C980        C981   1.410       .  A
C980        H985   1.063       .  S
C981        C982   1.445   1_655  A
C982        C983   1.528       .  S
C983        F987   1.384       .  S
C983        F988   1.383       .  S
C983        F989   1.370       .  S
C986        F990   1.380       .  S
C986        F991   1.380   1_655  S
C986        F992   1.385       .  S
C993        C994   1.395       .  A
C993        C998   1.427       .  A
C993       H1000   1.082       .  S
C994        C995   1.406       .  A
C995       C1002   1.518       .  S
C995        C996   1.418       .  A
C996        C997   1.431       .  A
C996       H1001   1.063       .  S
C997        C998   1.452       .  A
C998        C999   1.515       .  S
C999       F1003   1.372       .  S
C999       F1004   1.357       .  S
C999       F1005   1.376       .  S
C1002      F1006   1.380       .  S
C1002      F1007   1.383       .  S
C1002      F1008   1.385       .  S
C1009      C1014   1.422       .  A
C1009      H1016   1.073       .  S
C1010      C1011   1.439       .  A
C1011      C1018   1.534       .  S
C1011      C1012   1.427       .  A
C1012      H1017   1.045       .  S
C1013      C1014   1.437       .  A
C1014      C1015   1.524       .  S
C1015      F1019   1.376       .  S
C1015      F1020   1.371       .  S
C1015      F1021   1.381       .  S
C1018      F1022   1.380       .  S
C1018      F1023   1.370       .  S
C1018      F1024   1.367       .  S
C1025      C1026   1.422       .  A
C1025      C1030   1.403       .  A
C1025      H1032   1.056       .  S
C1026      C1027   1.473       .  A
C1027      C1034   1.533       .  S
C1027      C1028   1.431       .  A
C1028      C1029   1.394       .  A
C1028      H1033   1.079       .  S
C1029      C1030   1.403       .  A
C1030      C1031   1.517       .  S
C1031      F1035   1.382       .  S
C1031      F1036   1.380       .  S
C1031      F1037   1.378       .  S
C1034      F1038   1.365       .  S
C1034      F1039   1.365       .  S
C1034      F1040   1.386       .  S
C1041      C1046   1.408       .  A
C1041      H1048   1.080       .  S
C1042      C1043   1.426       .  A
C1043      C1050   1.527       .  S
C1044      C1045   1.407       .  A
C1044      H1049   1.071   1_565  S
C1045      C1046   1.457   1_455  A
C1046      C1047   1.542       .  S
C1047      F1051   1.384       .  S
C1047      F1052   1.387   1_655  S
C1047      F1053   1.362   1_655  S
C1050      F1054   1.371       .  S
C1050      F1055   1.374       .  S
C1057      C1058   1.423       .  A
C1057      C1062   1.393       .  A
C1057      H1064   1.066       .  S
C1058      C1059   1.455   1_455  A
C1059      C1066   1.537       .  S
C1059      C1060   1.401       .  A
C1060      C1061   1.390   1_655  A
C1060      H1065   1.084       .  S
C1061      C1062   1.410       .  A
C1062      C1063   1.529       .  S
C1063      F1067   1.384       .  S
C1063      F1068   1.383       .  S
C1063      F1069   1.384       .  S
C1066      F1070   1.381       .  S
C1066      F1071   1.368       .  S
C1066      F1072   1.387       .  S
C1073      C1074   1.405       .  A
C1073      C1078   1.410       .  A
C1073      H1080   1.063       .  S
C1074      C1075   1.423       .  A
C1075      C1082   1.520       .  S
C1075      C1076   1.428       .  A
C1076      C1077   1.428       .  A
C1076      H1081   1.061       .  S
C1077      C1078   1.453       .  A
C1078      C1079   1.524       .  S
C1079      F1083   1.385       .  S
C1079      F1084   1.381       .  S
C1079      F1085   1.368       .  S
C1082      F1086   1.370   1_565  S
C1082      F1087   1.383       .  S
C1082      F1088   1.383   1_565  S
C1089      C1090   1.416       .  A
C1089      C1094   1.405   1_455  A
C1089      H1096   1.072   1_455  S
C1090      C1091   1.445       .  A
C1091      C1098   1.530       .  S
C1091      C1092   1.404       .  A
C1092      C1093   1.396       .  A
C1092      H1097   1.085       .  S
C1093      C1094   1.421   1_455  A
C1094      C1095   1.525       .  S
C1095      F1099   1.385       .  S
C1095      F1100   1.381       .  S
C1095      F1101   1.384       .  S
C1098      F1102   1.369       .  S
C1098      F1103   1.379       .  S
C1098      F1104   1.386       .  S
C1105      C1106   1.389       .  A
C1105      C1110   1.402       .  A
C1105      H1112   1.084       .  S
C1106      C1107   1.404       .  A
C1107      C1114   1.519       .  S
C1107      C1108   1.403       .  A
C1108      C1109   1.411       .  A
C1108      H1113   1.048       .  S
C1109      C1110   1.461       .  A
C1110      C1111   1.536       .  S
C1111      F1115   1.386       .  S
C1111      F1116   1.380       .  S
C1111      F1117   1.365       .  S
C1114      F1118   1.377       .  S
C1114      F1119   1.383       .  S
C1114      F1120   1.384       .  S
C1121      C1570   1.420   1_554  A
C1121      C1126   1.414       .  A
C1121      H1128   1.076       .  S
C1122      C1569   1.420       .  A
C1122      C1123   1.447       .  A
C1123      C1130   1.532       .  S
C1123      C1124   1.409       .  A
C1124      C1573   1.414       .  A
C1124      H1129   1.078       .  S
C1125      C1572   1.414   1_554  A
C1125      C1126   1.443       .  A
C1126      C1127   1.525       .  S
C1127      F1131   1.386       .  S
C1127      F1132   1.380       .  S
C1127      F1133   1.362       .  S
C1130      F1134   1.366       .  S
C1130      F1135   1.385       .  S
C1130      F1136   1.374       .  S
C1137      C1138   1.386       .  A
C1137      C1142   1.411       .  A
C1137      H1144   1.087       .  S
C1138      C1587   1.402       .  A
C1139      C1146   1.517       .  S
C1139      C1586   1.402   1_554  A
C1139      C1588   1.404   1_554  A
C1140      C1587   1.404       .  A
C1140      C1141   1.424       .  A
C1140      H1593   1.080       .  S
C1141      C1142   1.466       .  A
C1142      C1143   1.533       .  S
C1143      F1147   1.382   1_455  S
C1143      F1148   1.361       .  S
C1143      F1149   1.387       .  S
H1145      C1588   1.080   1_554  S
C1146      F1150   1.383       .  S
C1146      F1151   1.382       .  S
C1146      F1152   1.385       .  S
C1153      C1154   1.423   1_455  A
C1153      C1158   1.409       .  A
C1153      H1160   1.065       .  S
C1154      C1155   1.453       .  A
C1155      C1162   1.530       .  S
C1155      C1156   1.409       .  A
C1156      C1157   1.396       .  A
C1156      H1161   1.086       .  S
C1157      C1158   1.409   1_655  A
C1159      F1163   1.385   1_545  S
C1159      F1164   1.384   1_545  S
C1162      F1166   1.381       .  S
C1162      F1167   1.360       .  S
C1162      F1168   1.378       .  S
C1169      C1170   1.398       .  A
C1169      C1174   1.410       .  A
C1169      H1176   1.081       .  S
C1170      C1171   1.410   1_455  A
C1171      C1178   1.526       .  S
C1171      C1172   1.400       .  A
C1172      C1173   1.422   1_655  A
C1172      H1177   1.064       .  S
C1173      C1174   1.440       .  A
C1174      C1175   1.518       .  S
C1175      F1179   1.359       .  S
C1175      F1180   1.381       .  S
C1175      F1181   1.385       .  S
C1178      F1182   1.384       .  S
C1178      F1183   1.380   1_565  S
C1178      F1184   1.385       .  S
C1185      C1186   1.395       .  A
C1185      C1190   1.420       .  A
C1185      H1192   1.086       .  S
C1186      C1187   1.415       .  A
C1187      C1642   1.529   1_554  S
C1187      C1188   1.412       .  A
C1188      C1189   1.433       .  A
C1188      H1193   1.067       .  S
C1189      C1190   1.468       .  A
C1190      C1191   1.540       .  S
C1191      F1195   1.386       .  S
C1191      F1196   1.385       .  S
C1191      F1197   1.364       .  S
C1194      C1635   1.529       .  S
C1194      F1646   1.383       .  S
C1194      F1199   1.380       .  S
C1194      F1200   1.385       .  S
F1198      C1642   1.383   1_554  S
C1201      C1206   1.419       .  A
C1201      H1208   1.085       .  S
C1202      C1203   1.410       .  A
C1203      C1210   1.519       .  S
C1203      C1204   1.418       .  A
C1204      C1205   1.428       .  A
C1204      H1209   1.071       .  S
C1206      C1207   1.517       .  S
C1207      F1211   1.387       .  S
C1207      F1212   1.379       .  S
C1207      F1213   1.372       .  S
C1210      F1214   1.383       .  S
C1210      F1215   1.383       .  S
C1210      F1216   1.385       .  S
C1217      C1218   1.423       .  A
C1217      C1222   1.414       .  A
C1217      H1224   1.050       .  S
C1218      C1219   1.447       .  A
C1219      C1226   1.517   1_565  S
C1219      C1220   1.431       .  A
C1220      C1221   1.406       .  A
C1221      C1222   1.409       .  A
C1222      C1223   1.521       .  S
C1223      F1227   1.383       .  S
C1223      F1228   1.382       .  S
C1223      F1229   1.376       .  S
C1226      F1231   1.378       .  S
C1233      C1234   1.420   1_455  A
C1233      C1238   1.405       .  A
C1233      H1240   1.070       .  S
C1234      C1235   1.445       .  A
C1235      C1242   1.537       .  S
C1235      C1236   1.404       .  A
C1236      C1237   1.405       .  A
C1236      H1241   1.085       .  S
C1237      C1238   1.413   1_655  A
C1238      C1239   1.521       .  S
C1239      F1243   1.384       .  S
C1239      F1244   1.384       .  S
C1239      F1245   1.383       .  S
C1242      F1246   1.381       .  S
C1242      F1247   1.369       .  S
C1242      F1248   1.386       .  S
C1249      C1250   1.415       .  A
C1249      C1702   1.415   1_554  A
C1249      H1256   1.069       .  S
C1250      C1251   1.452   1_654  A
C1251      C1258   1.543       .  S
C1251      C1700   1.418       .  A
C1252      C1699   1.418       .  A
C1252      C1253   1.418       .  A
C1252      H1257   1.068       .  S
C1253      C1254   1.444   1_455  A
C1254      C1255   1.534       .  S
C1254      C1697   1.415       .  A
C1255      F1259   1.387       .  S
C1255      F1260   1.370       .  S
C1255      F1709   1.381       .  S
C1258      F1710   1.376       .  S
C1258      F1263   1.371   1_556  S
C1258      F1264   1.386       .  S
F1261      C1703   1.381   1_554  S
F1262      C1706   1.376       .  S
C1265      C1266   1.431       .  A
C1265      C1270   1.411       .  A
C1265      H1272   1.069       .  S
C1266      C1267   1.451   1_554  A
C1267      C1722   1.520       .  S
C1267      C1716   1.409       .  A
C1268      C1715   1.409       .  A
C1268      C1717   1.385       .  A
C1268      H1273   1.085       .  S
C1269      C1716   1.385   1_554  A
C1269      C1270   1.404       .  A
C1270      C1271   1.519   1_655  S
C1271      F1275   1.385       .  S
C1271      F1276   1.382       .  S
C1271      F1277   1.380   1_455  S
C1274      C1715   1.520       .  S
C1274      F1278   1.366       .  S
C1274      F1279   1.378       .  S
C1274      F1280   1.381       .  S
C1281      C1282   1.422       .  A
C1281      C1286   1.395       .  A
C1281      H1288   1.086       .  S
C1282      C1283   1.460       .  A
C1283      C1290   1.542       .  S
C1283      C1284   1.413       .  A
C1284      C1285   1.394       .  A
C1284      H1289   1.083       .  S
C1285      C1286   1.405       .  A
C1286      C1287   1.519       .  S
C1287      F1291   1.380       .  S
C1287      F1292   1.381       .  S
C1287      F1293   1.378       .  S
C1290      F1294   1.381       .  S
C1290      F1295   1.381       .  S
C1290      F1296   1.367       .  S
C1297      C1746   1.430   1_554  A
C1297      C1302   1.428       .  A
C1297      H1304   1.072       .  S
C1298      C1745   1.430       .  A
C1298      C1299   1.464       .  A
C1299      C1306   1.550       .  S
C1299      C1300   1.403       .  A
C1300      C1749   1.402       .  A
C1300      H1305   1.072       .  S
C1301      C1748   1.402   1_554  A
C1301      C1302   1.445       .  A
C1302      C1303   1.533       .  S
C1303      F1307   1.382       .  S
C1303      F1308   1.377       .  S
C1303      F1309   1.383       .  S
C1306      F1310   1.384       .  S
C1306      F1311   1.353       .  S
C1306      F1312   1.386       .  S
C1313      C1314   1.425       .  A
C1313      C1318   1.411       .  A
C1313      H1320   1.078       .  S
C1314      C1315   1.446       .  A
C1315      C1322   1.521       .  S
C1315      C1316   1.405       .  A
C1316      C1317   1.396       .  A
C1316      H1321   1.085       .  S
C1317      C1318   1.420       .  A
C1318      C1319   1.522       .  S
C1319      F1323   1.383       .  S
C1319      F1324   1.383       .  S
C1319      F1773   1.384       .  S
C1322      F1326   1.363       .  S
C1322      F1327   1.372       .  S
C1322      F1328   1.389       .  S
F1325      C1767   1.384   1_554  S
C1329      C1778   1.421   1_554  A
C1329      C1334   1.419       .  A
C1329      H1336   1.084       .  S
C1330      C1777   1.421       .  A
C1330      C1331   1.466       .  A
C1331      C1338   1.542       .  S
C1331      C1332   1.418       .  A
C1332      C1781   1.410       .  A
C1332      H1337   1.073       .  S
C1333      C1780   1.410   1_554  A
C1333      C1334   1.447       .  A
C1334      C1335   1.529       .  S
C1335      F1339   1.385       .  S
C1335      F1340   1.365       .  S
C1335      F1341   1.383       .  S
C1338      F1342   1.370       .  S
C1338      F1343   1.372       .  S
C1338      F1344   1.382       .  S
C1345      C1730   1.545       .  S
C1345      C1746   1.631       .  S
C1345      C1762   1.597       .  S
C1345      C1778   1.638       .  S
C1346      C1682   1.583       .  S
C1346      C1698   1.614       .  S
C1346      C1714   1.595       .  S
C1346      C1781   1.598       .  S
O1347      C1357   1.288       .  A
O1348      C1358   1.289       .  A
O1349      C1359   1.279       .  A
O1350      C1360   1.281       .  A
O1350     Ni1355   1.931   1_556  S
O1351      C1360   1.291       .  A
O1352     Ni1356   1.953       .  S
O1353      C1358   1.278       .  A
O1353     Ni1356   1.918       .  S
O1354      C1357   1.275       .  A
C1357      C1765   1.502   1_554  S
C1358      C1634   1.510       .  S
C1359      C1650   1.497       .  S
C1360      C1669   1.512       .  S
O1361      C1371   1.281       .  A
O1362      C1372   1.281   1_455  A
O1363      C1373   1.282       .  A
O1363     Ni1369   1.917       .  S
O1364      C1374   1.283   1_455  A
O1365     Ni1370   1.909       .  S
O1366      C1373   1.277   1_655  A
O1367      C1372   1.282       .  A
O1368      C1371   1.280   1_655  A
O1368     Ni1370   1.918       .  S
C1371      C1586   1.473       .  S
C1372      C1717   1.479       .  S
C1373      C1618   1.481       .  S
C1374      C1605   1.490       .  S
C1375      C1557   1.587       .  S
C1375      C1573   1.597       .  S
C1375      C1637   1.639       .  S
C1375      C1749   1.605       .  S
C1376      C1538   1.564       .  S
C1376      C1570   1.599       .  S
C1376      C1589   1.583       .  S
C1376      C1701   1.618       .  S
C1377      C1493   1.578       .  S
C1377      C1506   1.562       .  S
C1377      C1522   1.610       .  S
C1377      C1621   1.598       .  S
C1378      C1458   1.619       .  S
C1378      C1474   1.636       .  S
C1378      C1525   1.635       .  S
C1378      C1666   1.648       .  S
O1379      C1389   1.288       .  A
O1379     Ni1387   1.952       .  S
O1380      C1390   1.288       .  A
O1380     Ni1387   1.946       .  S
O1381      C1391   1.275       .  A
O1381     Ni1387   1.900       .  S
O1382      C1392   1.278       .  A
O1382     Ni1387   1.904       .  S
O1383      C1392   1.281       .  A
O1383     Ni1388   1.918       .  S
O1384      C1391   1.282       .  A
O1384     Ni1388   1.913       .  S
O1385      C1390   1.282       .  A
O1385     Ni1388   1.932       .  S
O1386      C1389   1.284       .  A
O1386     Ni1388   1.938       .  S
Ni1387    Ni1388   2.388       .  S
C1389      C1442   1.508       .  S
C1390      C1477   1.499       .  S
C1391      C1733   1.459       .  S
C1392      C1554   1.469       .  S
O1393      C1403   1.279   1_655  A
O1393     Ni1401   1.901       .  S
O1394      C1404   1.282   1_655  A
O1394     Ni1401   1.904       .  S
O1395      C1405   1.277       .  A
O1395     Ni1401   1.892       .  S
O1396      C1406   1.271   1_655  A
O1396     Ni1401   1.888       .  S
O1397      C1406   1.287       .  A
O1397     Ni1402   1.925       .  S
O1398      C1405   1.283   1_455  A
O1398     Ni1402   1.925       .  S
O1399      C1404   1.269       .  A
O1399     Ni1402   1.877       .  S
O1400      C1403   1.273       .  A
O1400     Ni1402   1.884       .  S
Ni1401    Ni1402   2.384   1_655  S
C1403      C1426   1.448   1_455  S
C1404      C1509   1.469       .  S
C1405      C1685   1.492       .  S
C1406      C1541   1.487       .  S
C1407      C1410   1.630       .  S
C1407      C1445   1.643       .  S
C1407      C1461   1.625       .  S
C1407      C1653   1.624       .  S
C1408      C1413   1.586       .  S
C1408      C1429   1.560       .  S
C1408      C1490   1.578       .  S
C1408      C1602   1.608       .  S
C1409      C1410   1.429       .  A
C1409      C1414   1.423       .  A
C1409      H1416   1.067       .  S
C1410      C1411   1.460       .  A
C1411      C1418   1.526       .  S
C1411      C1412   1.397       .  A
C1412      C1413   1.401       .  A
C1412      H1417   1.076       .  S
C1413      C1414   1.447       .  A
C1414      C1415   1.532       .  S
C1415      F1419   1.386       .  S
C1415      F1420   1.363       .  S
C1415      F1421   1.378       .  S
C1418      F1423   1.371       .  S
C1418      F1424   1.385       .  S
C1425      C1426   1.391   1_455  A
C1425      C1430   1.400       .  A
C1425      H1432   1.085       .  S
C1426      C1427   1.404       .  A
C1427      C1434   1.518       .  S
C1427      C1428   1.390       .  A
C1428      C1429   1.410       .  A
C1428      H1433   1.063       .  S
C1429      C1430   1.445   1_655  A
C1430      C1431   1.528       .  S
C1431      F1435   1.384       .  S
C1431      F1436   1.383       .  S
C1431      F1437   1.370       .  S
C1434      F1438   1.380       .  S
C1434      F1439   1.380   1_655  S
C1434      F1440   1.385       .  S
C1441      C1442   1.395       .  A
C1441      C1446   1.427       .  A
C1441      H1448   1.082       .  S
C1442      C1443   1.406       .  A
C1443      C1450   1.518       .  S
C1443      C1444   1.418       .  A
C1444      C1445   1.431       .  A
C1444      H1449   1.063       .  S
C1445      C1446   1.452       .  A
C1446      C1447   1.515       .  S
C1447      F1451   1.372       .  S
C1447      F1452   1.357       .  S
C1447      F1453   1.376       .  S
C1450      F1454   1.380       .  S
C1450      F1455   1.383       .  S
C1450      F1456   1.385       .  S
C1457      C1462   1.422       .  A
C1457      H1464   1.073       .  S
C1458      C1459   1.439       .  A
C1459      C1466   1.534       .  S
C1459      C1460   1.427       .  A
C1460      H1465   1.045       .  S
C1461      C1462   1.437       .  A
C1462      C1463   1.524       .  S
C1463      F1467   1.376       .  S
C1463      F1468   1.371       .  S
C1463      F1469   1.381       .  S
C1466      F1470   1.380       .  S
C1466      F1471   1.370       .  S
C1466      F1472   1.367       .  S
C1473      C1474   1.422       .  A
C1473      C1478   1.403       .  A
C1473      H1480   1.056       .  S
C1474      C1475   1.473       .  A
C1475      C1482   1.533       .  S
C1475      C1476   1.431       .  A
C1476      C1477   1.394       .  A
C1476      H1481   1.079       .  S
C1477      C1478   1.403       .  A
C1478      C1479   1.517       .  S
C1479      F1483   1.382       .  S
C1479      F1484   1.380       .  S
C1479      F1485   1.378       .  S
C1482      F1486   1.365       .  S
C1482      F1487   1.365       .  S
C1482      F1488   1.386       .  S
C1489      C1494   1.408       .  A
C1489      H1496   1.080       .  S
C1490      C1491   1.426       .  A
C1491      C1498   1.527       .  S
C1492      C1493   1.407       .  A
C1492      H1497   1.071   1_565  S
C1493      C1494   1.457   1_455  A
C1494      C1495   1.542       .  S
C1495      F1499   1.384       .  S
C1495      F1500   1.387   1_655  S
C1495      F1501   1.362   1_655  S
C1498      F1502   1.371       .  S
C1498      F1503   1.374       .  S
C1505      C1506   1.423       .  A
C1505      C1510   1.393       .  A
C1505      H1512   1.066       .  S
C1506      C1507   1.455   1_455  A
C1507      C1514   1.537       .  S
C1507      C1508   1.401       .  A
C1508      C1509   1.390   1_655  A
C1508      H1513   1.084       .  S
C1509      C1510   1.410       .  A
C1510      C1511   1.529       .  S
C1511      F1515   1.384       .  S
C1511      F1516   1.383       .  S
C1511      F1517   1.384       .  S
C1514      F1518   1.381       .  S
C1514      F1519   1.368       .  S
C1514      F1520   1.387       .  S
C1521      C1522   1.405       .  A
C1521      C1526   1.410       .  A
C1521      H1528   1.063       .  S
C1522      C1523   1.423       .  A
C1523      C1530   1.520       .  S
C1523      C1524   1.428       .  A
C1524      C1525   1.428       .  A
C1524      H1529   1.061       .  S
C1525      C1526   1.453       .  A
C1526      C1527   1.524       .  S
C1527      F1531   1.385       .  S
C1527      F1532   1.381       .  S
C1527      F1533   1.368       .  S
C1530      F1534   1.370   1_565  S
C1530      F1535   1.383       .  S
C1530      F1536   1.383   1_565  S
C1537      C1538   1.416       .  A
C1537      C1542   1.405   1_455  A
C1537      H1544   1.072   1_455  S
C1538      C1539   1.445       .  A
C1539      C1546   1.530       .  S
C1539      C1540   1.404       .  A
C1540      C1541   1.396       .  A
C1540      H1545   1.085       .  S
C1541      C1542   1.421   1_455  A
C1542      C1543   1.525       .  S
C1543      F1547   1.385       .  S
C1543      F1548   1.381       .  S
C1543      F1549   1.384       .  S
C1546      F1550   1.369       .  S
C1546      F1551   1.379       .  S
C1546      F1552   1.386       .  S
C1553      C1554   1.389       .  A
C1553      C1558   1.402       .  A
C1553      H1560   1.084       .  S
C1554      C1555   1.404       .  A
C1555      C1562   1.519       .  S
C1555      C1556   1.403       .  A
C1556      C1557   1.411       .  A
C1556      H1561   1.048       .  S
C1557      C1558   1.461       .  A
C1558      C1559   1.536       .  S
C1559      F1563   1.386       .  S
C1559      F1564   1.380       .  S
C1559      F1565   1.365       .  S
C1562      F1566   1.377       .  S
C1562      F1567   1.383       .  S
C1562      F1568   1.384       .  S
C1569      C1574   1.414       .  A
C1569      H1576   1.076       .  S
C1570      C1571   1.447       .  A
C1571      C1578   1.532       .  S
C1571      C1572   1.409       .  A
C1572      H1577   1.078       .  S
C1573      C1574   1.443       .  A
C1574      C1575   1.525       .  S
C1575      F1579   1.386       .  S
C1575      F1580   1.380       .  S
C1575      F1581   1.362       .  S
C1578      F1582   1.366       .  S
C1578      F1583   1.385       .  S
C1578      F1584   1.374       .  S
C1585      C1586   1.386       .  A
C1585      C1590   1.411       .  A
C1585      H1592   1.087       .  S
C1587      C1594   1.517       .  S
C1588      C1589   1.424       .  A
C1589      C1590   1.466       .  A
C1590      C1591   1.533       .  S
C1591      F1595   1.382   1_455  S
C1591      F1596   1.361       .  S
C1591      F1597   1.387       .  S
C1594      F1598   1.383       .  S
C1594      F1599   1.382       .  S
C1594      F1600   1.385       .  S
C1601      C1602   1.423   1_455  A
C1601      C1606   1.409       .  A
C1601      H1608   1.065       .  S
C1602      C1603   1.453       .  A
C1603      C1610   1.530       .  S
C1603      C1604   1.409       .  A
C1604      C1605   1.396       .  A
C1604      H1609   1.086       .  S
C1605      C1606   1.409   1_655  A
C1607      F1611   1.385   1_545  S
C1607      F1612   1.384   1_545  S
C1610      F1614   1.381       .  S
C1610      F1615   1.360       .  S
C1610      F1616   1.378       .  S
C1617      C1618   1.398       .  A
C1617      C1622   1.410       .  A
C1617      H1624   1.081       .  S
C1618      C1619   1.410   1_455  A
C1619      C1626   1.526       .  S
C1619      C1620   1.400       .  A
C1620      C1621   1.422   1_655  A
C1620      H1625   1.064       .  S
C1621      C1622   1.440       .  A
C1622      C1623   1.518       .  S
C1623      F1627   1.359       .  S
C1623      F1628   1.381       .  S
C1623      F1629   1.385       .  S
C1626      F1630   1.384       .  S
C1626      F1631   1.380   1_565  S
C1626      F1632   1.385       .  S
C1633      C1634   1.395       .  A
C1633      C1638   1.420       .  A
C1633      H1640   1.086       .  S
C1634      C1635   1.415       .  A
C1635      C1636   1.412       .  A
C1636      C1637   1.433       .  A
C1636      H1641   1.067       .  S
C1637      C1638   1.468       .  A
C1638      C1639   1.540       .  S
C1639      F1643   1.386       .  S
C1639      F1644   1.385       .  S
C1639      F1645   1.364       .  S
C1642      F1647   1.380       .  S
C1642      F1648   1.385       .  S
C1649      C1654   1.419       .  A
C1649      H1656   1.085       .  S
C1650      C1651   1.410       .  A
C1651      C1658   1.519       .  S
C1651      C1652   1.418       .  A
C1652      C1653   1.428       .  A
C1652      H1657   1.071       .  S
C1654      C1655   1.517       .  S
C1655      F1659   1.387       .  S
C1655      F1660   1.379       .  S
C1655      F1661   1.372       .  S
C1658      F1662   1.383       .  S
C1658      F1663   1.383       .  S
C1658      F1664   1.385       .  S
C1665      C1666   1.423       .  A
C1665      C1670   1.414       .  A
C1665      H1672   1.050       .  S
C1666      C1667   1.447       .  A
C1667      C1674   1.517   1_565  S
C1667      C1668   1.431       .  A
C1668      C1669   1.406       .  A
C1669      C1670   1.409       .  A
C1670      C1671   1.521       .  S
C1671      F1675   1.383       .  S
C1671      F1676   1.382       .  S
C1671      F1677   1.376       .  S
C1674      F1679   1.378       .  S
C1681      C1682   1.420   1_455  A
C1681      C1686   1.405       .  A
C1681      H1688   1.070       .  S
C1682      C1683   1.445       .  A
C1683      C1690   1.537       .  S
C1683      C1684   1.404       .  A
C1684      C1685   1.405       .  A
C1684      H1689   1.085       .  S
C1685      C1686   1.413   1_655  A
C1686      C1687   1.521       .  S
C1687      F1691   1.384       .  S
C1687      F1692   1.384       .  S
C1687      F1693   1.383       .  S
C1690      F1694   1.381       .  S
C1690      F1695   1.369       .  S
C1690      F1696   1.386       .  S
C1697      C1698   1.415       .  A
C1697      H1704   1.069       .  S
C1698      C1699   1.452   1_655  A
C1699      C1706   1.543       .  S
C1700      C1701   1.418       .  A
C1700      H1705   1.068       .  S
C1701      C1702   1.444   1_455  A
C1702      C1703   1.534       .  S
C1703      F1707   1.387       .  S
C1703      F1708   1.370       .  S
C1706      F1711   1.371       .  S
C1706      F1712   1.386       .  S
C1713      C1714   1.431       .  A
C1713      C1718   1.411       .  A
C1713      H1720   1.069       .  S
C1714      C1715   1.451       .  A
C1716      H1721   1.085       .  S
C1717      C1718   1.404       .  A
C1718      C1719   1.519   1_655  S
C1719      F1723   1.385       .  S
C1719      F1724   1.382       .  S
C1719      F1725   1.380   1_455  S
C1722      F1726   1.366       .  S
C1722      F1727   1.378       .  S
C1722      F1728   1.381       .  S
C1729      C1730   1.422       .  A
C1729      C1734   1.395       .  A
C1729      H1736   1.086       .  S
C1730      C1731   1.460       .  A
C1731      C1738   1.542       .  S
C1731      C1732   1.413       .  A
C1732      C1733   1.394       .  A
C1732      H1737   1.083       .  S
C1733      C1734   1.405       .  A
C1734      C1735   1.519       .  S
C1735      F1739   1.380       .  S
C1735      F1740   1.381       .  S
C1735      F1741   1.378       .  S
C1738      F1742   1.381       .  S
C1738      F1743   1.381       .  S
C1738      F1744   1.367       .  S
C1745      C1750   1.428       .  A
C1745      H1752   1.072       .  S
C1746      C1747   1.464       .  A
C1747      C1754   1.550       .  S
C1747      C1748   1.403       .  A
C1748      H1753   1.072       .  S
C1749      C1750   1.445       .  A
C1750      C1751   1.533       .  S
C1751      F1755   1.382       .  S
C1751      F1756   1.377       .  S
C1751      F1757   1.383       .  S
C1754      F1758   1.384       .  S
C1754      F1759   1.353       .  S
C1754      F1760   1.386       .  S
C1761      C1762   1.425       .  A
C1761      C1766   1.411       .  A
C1761      H1768   1.078       .  S
C1762      C1763   1.446       .  A
C1763      C1770   1.521       .  S
C1763      C1764   1.405   1_556  A
C1764      C1765   1.396   1_554  A
C1764      H1769   1.085       .  S
C1765      C1766   1.420       .  A
C1766      C1767   1.522       .  S
C1767      F1771   1.383       .  S
C1767      F1772   1.383       .  S
C1770      F1774   1.363       .  S
C1770      F1775   1.372       .  S
C1770      F1776   1.389       .  S
C1777      C1782   1.419       .  A
C1777      H1784   1.084       .  S
C1778      C1779   1.466       .  A
C1779      C1786   1.542       .  S
C1779      C1780   1.418       .  A
C1780      H1785   1.073       .  S
C1781      C1782   1.447       .  A
C1782      C1783   1.529       .  S
C1783      F1787   1.385       .  S
C1783      F1788   1.365       .  S
C1783      F1789   1.383       .  S
C1786      F1790   1.370       .  S
C1786      F1791   1.372       .  S
C1786      F1792   1.382       .  S
