geometry optimzed in LAMMPS
_audit_creation_date              2020-11-30 
_audit_creation_method            'lammps2cif' 
_symmetry_space_group_name_H-M    'P1' 
_symmetry_Int_Tables_number       1 
_symmetry_cell_setting            triclinic 
loop_ 
_symmetry_equiv_pos_as_xyz 
  x,y,z 
_cell_length_a                    21.65097589 
_cell_length_b                    21.885079289608917 
_cell_length_c                    30.334170027300935 
_cell_angle_alpha                 89.20736845460426 
_cell_angle_beta                  93.1051177637099 
_cell_angle_gamma                 120.87769309280945 
loop_ 
_atom_site_label 
_atom_site_type_symbol 
_atom_site_fract_x 
_atom_site_fract_y 
_atom_site_fract_z 
_atom_site_charge 
C1          C  0.97078754  0.34064037  0.28818034     0.87500
C2          C  0.04462171  0.34750639  0.29257236    -0.52700
C3          C  0.05932709  0.31574956  0.25991769     0.10500
C4          C  0.99628727  0.27893379  0.22406217     0.21400
C5          C  0.96795119  0.37050571  0.24213005    -0.53400
C6          C  0.98071572  0.33770285  0.20832549     0.10600
C7          C  0.91667017  0.26079538  0.28314912    -0.53000
C8          C  0.92863610  0.22790663  0.24932900     0.11100
H9          H  0.08317349  0.37639660  0.31993937     0.15600
H10         H  0.00693253  0.25270747  0.19685438     0.01400
H11         H  0.95713600  0.41338760  0.23682756     0.15900
H12         H  0.86915295  0.23403559  0.30243454     0.15700
C13         C  0.34557862  0.33813435  0.29509132     0.87500
C14         C  0.33118754  0.26242599  0.29166948    -0.52700
C15         C  0.28917457  0.22487371  0.25568719     0.10500
C16         C  0.26472132  0.26684811  0.22541008     0.21400
C17         C  0.37801386  0.37245589  0.25079491    -0.53400
C18         C  0.33556221  0.33511953  0.21408730     0.10600
C19         C  0.27029150  0.32970586  0.29246246    -0.53000
C20         C  0.22753690  0.29319940  0.25563001     0.11100
H21         H  0.35242540  0.23994855  0.31596882     0.15600
H22         H  0.23040519  0.23587409  0.19602747     0.01400
H23         H  0.42896124  0.42221059  0.24887989     0.15900
H24         H  0.25295191  0.35070429  0.31812489     0.15700
C25         C  0.36727176  0.01465227  0.28412041     0.87500
C26         C  0.29174226  0.94849142  0.27727459    -0.52700
C27         C  0.25675211  0.94662861  0.23780422     0.10500
C28         C  0.30133766  0.01038468  0.20830736     0.21400
C29         C  0.40731688  0.01425641  0.24361467    -0.53400
C30         C  0.37204102  0.01101492  0.20405079     0.10600
C31         C  0.35594111  0.07778072  0.27691106    -0.53000
C32         C  0.32172551  0.07587652  0.23729210     0.11100
H33         H  0.26839903  0.90636770  0.30130335     0.15600
H34         H  0.27337746  0.00880938  0.17614792     0.01400
H35         H  0.45891577  0.01712494  0.24599205     0.15900
H36         H  0.37435232  0.12094193  0.30087875     0.15700
C37         C  0.01977701  0.65943377  0.27827815     0.87500
C38         C  0.94923988  0.65998698  0.27398389    -0.52700
C39         C  0.94766266  0.70436085  0.24211596     0.10500
C40         C  0.01711777  0.74200352  0.21606352     0.21400
C41         C  0.02885780  0.63858007  0.23197434    -0.53400
C42         C  0.02711436  0.68137666  0.19888675     0.10600
C43         C  0.07874040  0.73732085  0.28450375    -0.53000
C44         C  0.07823493  0.78060028  0.25215707     0.11100
H45         H  0.90469283  0.62811260  0.29479557     0.15600
H46         H  0.01632041  0.77770878  0.18994465     0.01400
H47         H  0.03360749  0.59239820  0.22643099     0.15900
H48         H  0.11862536  0.75668517  0.31211671     0.15700
C49         C  0.65289644  0.65924592  0.29108937     0.87500
C50         C  0.66529293  0.73339687  0.28361058    -0.52700
C51         C  0.71029128  0.77026452  0.25084754     0.10500
C52         C  0.73977790  0.72820179  0.22816502     0.21400
C53         C  0.62582953  0.62192428  0.24513009    -0.53400
C54         C  0.67150465  0.65866246  0.21196601     0.10600
C55         C  0.72792118  0.66962851  0.29888554    -0.53000
C56         C  0.77372223  0.70457904  0.26611019     0.11100
H57         H  0.63693710  0.75344398  0.30145727     0.15600
H58         H  0.77673297  0.75810539  0.20165188     0.01400
H59         H  0.57431522  0.57307763  0.23928182     0.15900
H60         H  0.74289631  0.64887902  0.32763638     0.15700
C61         C  0.63710540  0.99486357  0.29219372     0.87500
C62         C  0.71327683  0.05952565  0.29081704    -0.52700
C63         C  0.75311030  0.05795856  0.25802726     0.10500
C64         C  0.71176498  0.99101345  0.22778238     0.21400
C65         C  0.60234555  0.99015318  0.24609388    -0.53400
C66         C  0.64033719  0.98817127  0.21187752     0.10600
C67         C  0.64911822  0.93155413  0.29391279    -0.53000
C68         C  0.68875641  0.92966354  0.26095806     0.11100
H69         H  0.73615738  0.10102790  0.31629547     0.15600
H70         H  0.74412986  0.98932560  0.20121081     0.01400
H71         H  0.55154327  0.98854754  0.24093690     0.15900
H72         H  0.63376560  0.89419696  0.32076687     0.15700
O73         O  0.53475237  0.15858959  0.49794307    -0.79100
O74         O  0.54663067  0.97098793  0.07667334    -0.79100
O75         O  0.42194254  0.01575711  0.07008418    -0.79100
O76         O  0.67887787  0.06338785  0.47636825    -0.79100
O77         O  0.40100250  0.90761028  0.07084895    -0.79200
O78         O  0.64982688  0.13976803  0.49592082    -0.79100
O79         O  0.65235730  0.00635750  0.04955602    -0.79100
O80         O  0.45734018  0.11837756  0.01280016    -0.79100
C81         C  0.47283023  0.14843649  0.50397477     1.10600
C82         C  0.61394857  0.98953406  0.08282117     1.10500
C83         C  0.40465649  0.95973106  0.09089827     1.10600
C84         C  0.69838243  0.12721449  0.48602120     1.10500
O85         O  0.58046257  0.04809691  0.41523729    -0.79100
O86         O  0.38697053  0.86522093  0.97935848    -0.79200
O87         O  0.37770596  0.97253794  0.44037217    -0.79100
O88         O  0.58302034  0.89345072  0.51002457    -0.79100
O89         O  0.46409313  0.83668853  0.04112730    -0.79100
O90         O  0.47134383  0.07256722  0.41907811    -0.79100
O91         O  0.54760117  0.94204235  0.44018126    -0.79100
O92         O  0.32235710  0.90812225  0.00248928    -0.79100
Co93       Co  0.55440606  0.09615433  0.46177863     1.51500
Co94       Co  0.46898879  0.92251307  0.02341857     1.51700
Co95       Co  0.39823364  0.01531262  0.00634381     1.51600
Co96       Co  0.58382462  0.98653937  0.49858778     1.51500
O97         O  0.49001555  0.01284093  0.99165748    -1.41000
C98         C  0.56377391  0.98396782  0.40839773     1.10500
C99         C  0.32544300  0.85670817  0.98562915     1.10600
C100        C  0.41003161  0.01777605  0.41105051     1.10500
C101        C  0.50814856  0.84461222  0.01260692     1.10500
O102        O  0.97749646  0.44462360  0.41651902    -0.79100
O103        O  0.84034204  0.49000990  0.04231706    -0.79100
O104        O  0.89069732  0.33614002  0.00028148    -0.79100
O105        O  0.99501932  0.58307910  0.43158925    -0.79100
O106        O  0.85497464  0.40940455  0.97815784    -0.79200
O107        O  0.07716710  0.57551929  0.39382485    -0.79100
O108        O  0.88477895  0.50777722  0.49802433    -0.79100
O109        O  0.01636421  0.37465498  0.43994988    -0.79100
C110        C  0.98367889  0.39100987  0.41059316     1.10600
C111        C  0.84678800  0.54996283  0.03211284     1.10500
C112        C  0.84101242  0.34594730  0.98364481     1.10600
C113        C  0.02906337  0.59203220  0.39573324     1.10500
O114        O  0.15453869  0.61207278  0.47213474    -0.79100
O115        O  0.89073680  0.39736418  0.07089872    -0.79200
O116        O  0.10567634  0.44971038  0.02134365    -0.79100
O117        O  0.03528817  0.62313968  0.05531864    -0.79100
O118        O  0.96756137  0.52503521  0.08415385    -0.79100
O119        O  0.12964356  0.49488370  0.43411717    -0.79100
O120        O  0.09958669  0.65491649  0.50622541    -0.79100
O121        O  0.99759803  0.41123387  0.07411134    -0.79100
Co122      Co  0.06152365  0.52778081  0.44773153     1.51500
Co123      Co  0.91855614  0.47699457  0.02654283     1.51700
Co124      Co  0.00077458  0.40150203  0.00964368     1.51600
Co125      Co  0.99737593  0.57286869  0.50062672     1.51500
O126        O  0.01238789  0.50106820  0.99758880    -1.41000
C127        C  0.15743239  0.66287407  0.49288200     1.10500
C128        C  0.93976236  0.39199655  0.09246065     1.10600
C129        C  0.16382979  0.48099177  0.46391232     1.10500
C130        C  0.01479579  0.58840100  0.08948332     1.10500
O131        O  0.37429922  0.49187016  0.44934083    -0.79100
O132        O  0.56029186  0.49052980  0.08735156    -0.79100
O133        O  0.38558476  0.41396012  0.07874824    -0.79100
O134        O  0.55679525  0.63913967  0.53464918    -0.79100
O135        O  0.49339604  0.42865146  0.09033157    -0.79200
O136        O  0.48179027  0.61269585  0.47842061    -0.79100
O137        O  0.61174636  0.60615580  0.07183017    -0.79100
O138        O  0.34169952  0.46701334  0.01037244    -0.79100
C139        C  0.33700424  0.47463837  0.48371852     1.10600
C140        C  0.59520285  0.55654035  0.09956729     1.10500
C141        C  0.43236862  0.41347345  0.10499003     1.10600
C142        C  0.51453732  0.65143408  0.51190086     1.10500
O143        O  0.50907149  0.57881957  0.40124469    -0.79100
O144        O  0.53544434  0.36762716  0.03373058    -0.79200
O145        O  0.37237250  0.36779207  0.45453665    -0.79100
O146        O  0.65391130  0.53388435  0.49281941    -0.79100
O147        O  0.63163714  0.49891240  0.03547869    -0.79100
O148        O  0.46999996  0.44424687  0.42109904    -0.79100
O149        O  0.60908737  0.62077940  0.44796666    -0.79100
O150        O  0.42137315  0.33479767  0.01649079    -0.79100
Co151      Co  0.48204892  0.52795724  0.45340194     1.51500
Co152      Co  0.52474634  0.44709492  0.02580832     1.51700
Co153      Co  0.38913662  0.41061932  0.01381425     1.51600
Co154      Co  0.59469146  0.57902260  0.51325958     1.51500
O155        O  0.48865894  0.51063233  0.01083814    -1.41000
C156        C  0.57756198  0.61620973  0.40866352     1.10500
C157        C  0.47181187  0.31966857  0.02249346     1.10600
C158        C  0.40805396  0.38852506  0.41987410     1.10500
C159        C  0.67152382  0.54467449  0.00883636     1.10500
C160        C  0.23444897  0.48944698  0.45488245    -0.15400
C161        C  0.27159175  0.47838291  0.48738286    -0.30600
H162        H  0.25403691  0.50147571  0.42177058     0.13600
H163        H  0.25336078  0.51012712  0.93480663     0.14200
C164        C  0.78437796  0.55686156  0.03950287    -0.15400
C165        C  0.74720206  0.56454788  0.00542804    -0.30600
H166        H  0.75854025  0.53727995  0.07062179     0.13600
H167        H  0.78208821  0.54196220  0.48081576     0.14200
C168        C  0.50263816  0.71087922  0.52332384    -0.15400
C169        C  0.55695808  0.77800384  0.53354484    -0.30600
H170        H  0.44868064  0.70173231  0.51712009     0.13600
H171        H  0.56035017  0.79621781  0.97846142     0.14200
C172        C  0.49434159  0.23288103  0.98670158    -0.15400
C173        C  0.45591427  0.24651318  0.01454890    -0.30600
H174        H  0.53525207  0.27585511  0.96778132     0.13600
H175        H  0.55414523  0.28689276  0.48079373     0.14200
C176        C  0.22594636  0.73374308  0.50139479    -0.15400
C177        C  0.25875949  0.78368457  0.97665746    -0.30600
H178        H  0.17657034  0.80259350  0.99457823     0.13600
H179        H  0.30121641  0.72196484  0.46572673     0.14200
C180        C  0.77643173  0.18590509  0.48802056    -0.15400
C181        C  0.76543665  0.28295666  0.97409656    -0.30600
H182        H  0.75952492  0.23251882  0.03464273     0.13600
H183        H  0.75335364  0.26730445  0.47724123     0.14200
C184        C  0.64730938  0.99440602  0.12831807    -0.15400
C185        C  0.61045788  0.98248832  0.16512542    -0.30600
H186        H  0.70344955  0.00906408  0.13136806     0.13600
H187        H  0.55490739  0.96990112  0.16108338     0.14200
C188        C  0.57352169  0.96031753  0.36502215    -0.15400
C189        C  0.59889449  0.00422711  0.33032662    -0.30600
H190        H  0.56707557  0.90787564  0.36403193     0.13600
H191        H  0.60070416  0.05480020  0.33174247     0.14200
C192        C  0.61321997  0.57325708  0.14765560    -0.15400
C193        C  0.65597633  0.63992031  0.16383616    -0.30600
H194        H  0.58986749  0.52918628  0.17037171     0.13600
H195        H  0.68242496  0.68330083  0.14089913     0.14200
C196        C  0.60427092  0.62336274  0.32923747    -0.15400
C197        C  0.62295989  0.65175486  0.37083257    -0.30600
H198        H  0.55343424  0.57394934  0.32267469     0.13600
H199        H  0.67541416  0.69918267  0.37763423     0.14200
C200        C  0.71804854  0.83905165  0.23606906    -0.15400
C201        C  0.71999889  0.88349481  0.26698292    -0.30600
H202        H  0.70815212  0.84575144  0.20137966     0.13600
H203        H  0.73031168  0.87417438  0.30121173     0.14200
C204        C  0.02783410  0.66804215  0.15060045    -0.15400
C205        C  0.04025049  0.61820383  0.13466440    -0.30600
H206        H  0.01077370  0.69569175  0.12756256     0.13600
H207        H  0.05451016  0.58786208  0.15705067     0.14200
C208        C  0.02404657  0.61432028  0.31537482    -0.15400
C209        C  0.01197739  0.62371847  0.35717597    -0.30600
H210        H  0.04150839  0.57709713  0.30842359     0.13600
H211        H  0.99163946  0.65874511  0.36364284     0.14200
C212        C  0.88512386  0.71558143  0.23489440    -0.15400
C213        C  0.84612406  0.71186148  0.26914082    -0.30600
H214        H  0.86983921  0.72365680  0.20164688     0.13600
H215        H  0.86476958  0.70606313  0.30204257     0.14200
C216        C  0.38731980  0.95560420  0.13792147    -0.15400
C217        C  0.40101400  0.01430531  0.16052489    -0.28800
H218        H  0.36051363  0.90398514  0.15358144     0.13600
H219        H  0.42698583  0.06582500  0.14476699     0.14200
C220        C  0.37273230  0.00868371  0.36706350    -0.15400
C221        C  0.40551626  0.01886962  0.32870747    -0.30600
H222        H  0.31595571  0.99194095  0.36620442     0.13600
H223        H  0.46106743  0.03128091  0.32956661     0.14200
C224        C  0.18399648  0.88642708  0.22452023    -0.15400
C225        C  0.13389458  0.85664597  0.25449915    -0.30600
H226        H  0.17516158  0.86150999  0.19224931     0.13600
H227        H  0.14520324  0.88242474  0.28675223     0.14200
C228        C  0.35203241  0.35769445  0.16723843    -0.15400
C229        C  0.41914382  0.39859470  0.15280663    -0.30600
H230        H  0.30661384  0.33545738  0.14313419     0.13600
H231        H  0.46544109  0.41634323  0.17586833     0.14200
C232        C  0.39150459  0.37741615  0.33684543    -0.15400
C233        C  0.37192621  0.34982138  0.37751267    -0.30600
H234        H  0.44017244  0.42894007  0.33366903     0.13600
H235        H  0.32237980  0.29875936  0.37993058     0.14200
C236        C  0.27027648  0.15031967  0.24969513    -0.15400
C237        C  0.30860258  0.13391219  0.22417394    -0.30600
H238        H  0.24143960  0.11421946  0.27603047     0.13600
H239        H  0.34153056  0.17075076  0.19928551     0.14200
C240        C  0.98139812  0.35632461  0.16070304    -0.15400
C241        C  0.93338188  0.37061823  0.13977536    -0.30600
H242        H  0.02155849  0.35463281  0.14166642     0.13600
H243        H  0.88986239  0.36761485  0.15769558     0.14200
C244        C  0.96085676  0.34934973  0.36867024    -0.15400
C245        C  0.96024696  0.37557456  0.32809410    -0.30600
H246        H  0.95956382  0.29904139  0.37052770     0.13600
H247        H  0.96371929  0.42669121  0.32455132     0.14200
C248        C  0.13305814  0.32502259  0.26180663    -0.15400
C249        C  0.15296933  0.28113256  0.24527232    -0.30600
H250        H  0.17340835  0.37057998  0.28140968     0.13600
H251        H  0.11493908  0.23621293  0.22435260     0.14200
C252        C  0.87003732  0.15622587  0.23305345    -0.15400
C253        C  0.83231747  0.10638625  0.26265167    -0.30600
H254        H  0.84875687  0.15084582  0.19916994     0.13600
H255        H  0.85548492  0.11506322  0.29635313     0.14200
C256        C  0.01481791  0.34430173  0.79021464     0.87500
C257        C  0.07680761  0.33100413  0.79983835    -0.52700
C258        C  0.08623513  0.29460336  0.76749535     0.10500
C259        C  0.03144816  0.27382690  0.72746525     0.21400
C260        C  0.03000105  0.38164380  0.74512861    -0.53400
C261        C  0.03864402  0.34442855  0.71229108     0.10600
C262        C  0.94873665  0.27075146  0.78039261    -0.53000
C263        C  0.95674021  0.23372224  0.74742343     0.11100
H264        H  0.11132275  0.34978925  0.82993951     0.15600
H265        H  0.03799690  0.24348282  0.70091488     0.01400
H266        H  0.03167244  0.43156356  0.73939022     0.15900
H267        H  0.89884185  0.25055686  0.79706454     0.15700
C268        C  0.37943532  0.34986704  0.79576735     0.87500
C269        C  0.37232811  0.27728965  0.78991839    -0.52700
C270        C  0.33476074  0.24168047  0.75197164     0.10500
C271        C  0.30634837  0.28166680  0.72343984     0.21400
C272        C  0.41336240  0.38968521  0.75328875    -0.53400
C273        C  0.37467549  0.35359707  0.71557793     0.10600
C274        C  0.30205570  0.33524708  0.79193347    -0.53000
C275        C  0.26326486  0.29939658  0.75418958     0.11100
H276        H  0.39844083  0.25753068  0.81261351     0.15600
H277        H  0.27579591  0.25282420  0.69254434     0.01400
H278        H  0.46247597  0.44149579  0.75300637     0.15900
H279        H  0.28149112  0.35514640  0.81632400     0.15700
C280        C  0.32217929  0.98157600  0.78142841     0.87500
C281        C  0.24424283  0.92130115  0.77719075    -0.52700
C282        C  0.20745546  0.92134440  0.73907768     0.10500
C283        C  0.25376630  0.98324868  0.70818035     0.21400
C284        C  0.35566298  0.97459952  0.73919246    -0.53400
C285        C  0.31957503  0.97551645  0.70055295     0.10600
C286        C  0.31977382  0.04928856  0.77522052    -0.53000
C287        C  0.28487559  0.05145702  0.73700402     0.11100
H288        H  0.22164482  0.87989087  0.80169729     0.15600
H289        H  0.22428993  0.98410356  0.67726064     0.01400
H290        H  0.40415845  0.97150767  0.73985790     0.15900
H291        H  0.34362536  0.09229183  0.79968439     0.15700
C292        C  0.96436043  0.62911198  0.78572662     0.87500
C293        C  0.89843759  0.63698342  0.77717283    -0.52700
C294        C  0.90487815  0.68138118  0.74305049     0.10500
C295        C  0.97590485  0.71218703  0.71952945     0.21400
C296        C  0.97487625  0.60374175  0.74077376    -0.53400
C297        C  0.98089052  0.64718933  0.70577217     0.10600
C298        C  0.02759676  0.70560183  0.79133538    -0.53000
C299        C  0.03393311  0.74909090  0.75712662     0.11100
H300        H  0.85141965  0.61145141  0.79683476     0.15600
H301        H  0.98058546  0.74812635  0.69202127     0.01400
H302        H  0.97614746  0.55514901  0.73742280     0.15900
H303        H  0.06417687  0.72428386  0.82057270     0.15700
C304        C  0.63200448  0.67242918  0.78415196     0.87500
C305        C  0.64529397  0.74632705  0.77437857    -0.52700
C306        C  0.69303500  0.78148952  0.74240187     0.10500
C307        C  0.72373886  0.73820435  0.72271261     0.21400
C308        C  0.60862054  0.63341587  0.73894363    -0.53400
C309        C  0.65651507  0.66756468  0.70643814     0.10600
C310        C  0.70662423  0.68321043  0.79507943    -0.53000
C311        C  0.75431352  0.71632607  0.76305637     0.11100
H312        H  0.62083224  0.76994065  0.79279496     0.15600
H313        H  0.76346099  0.76704371  0.69737388     0.01400
H314        H  0.55887863  0.58265015  0.73333497     0.15900
H315        H  0.71955299  0.66284164  0.82484359     0.15700
C316        C  0.66999249  0.02632530  0.79862204     0.87500
C317        C  0.75114352  0.07632481  0.79886399    -0.52700
C318        C  0.78148752  0.07239331  0.76162470     0.10500
C319        C  0.72681410  0.01854282  0.72631459     0.21400
C320        C  0.63971446  0.04382692  0.75608644    -0.53400
C321        C  0.66824051  0.03880002  0.71781974     0.10600
C322        C  0.65769874  0.95246677  0.78902757    -0.53000
C323        C  0.68686427  0.94797326  0.75127605     0.11100
H324        H  0.78260221  0.11090043  0.82681704     0.15600
H325        H  0.75142791  0.01430120  0.69623815     0.01400
H326        H  0.59504525  0.05321077  0.75594098     0.15900
H327        H  0.62556685  0.90659320  0.80927356     0.15700
O328        O  0.49727755  0.14133732  0.94573579    -0.79100
O329        O  0.54815187  0.97792830  0.59040749    -0.79100
O330        O  0.40233313  0.99420094  0.57068708    -0.79100
O331        O  0.63130764  0.11667083  0.02615522    -0.79100
O332        O  0.41232703  0.89964152  0.58101848    -0.79200
O333        O  0.62656962  0.14503908  0.95650178    -0.79100
O334        O  0.64482593  0.02267141  0.55530314    -0.79100
O335        O  0.41771417  0.08638280  0.50305822    -0.79100
C336        C  0.48255292  0.16041309  0.98130037     1.10600
C337        C  0.61567037  0.01326060  0.59152599     1.10500
C338        C  0.39789147  0.94519776  0.59558811     1.10600
C339        C  0.65816606  0.16116848  0.99502194     1.10500
O340        O  0.55313227  0.00127064  0.91397403    -0.79100
O341        O  0.41870110  0.85328643  0.48972349    -0.79200
O342        O  0.36350135  0.01977934  0.94280060    -0.79100
O343        O  0.54530877  0.90577075  0.99389266    -0.79100
O344        O  0.49704035  0.83964442  0.55691314    -0.79100
O345        O  0.43357201  0.99786498  0.90542095    -0.79100
O346        O  0.64467107  0.03471138  0.95964250    -0.79100
O347        O  0.33904262  0.87835381  0.50840211    -0.79100
Co348      Co  0.52494576  0.06725051  0.93407451     1.51500
Co349      Co  0.48843257  0.92088064  0.53723348     1.51700
Co350      Co  0.39439617  0.98513544  0.50534949     1.51600
Co351      Co  0.58151387  0.01215436  0.01211353     1.51500
O352        O  0.50133677  0.00875862  0.50546451    -1.41000
C353        C  0.61723348  0.01784243  0.92056232     1.10500
C354        C  0.35312315  0.83342623  0.49384721     1.10600
C355        C  0.37859692  0.00225177  0.90678879     1.10500
C356        C  0.54512377  0.83975148  0.53433940     1.10500
O357        O  0.01566902  0.46228347  0.90446580    -0.79100
O358        O  0.85268432  0.43636900  0.55632385    -0.79100
O359        O  0.92440457  0.31480658  0.50592846    -0.79100
O360        O  0.92362815  0.54005100  0.94035207    -0.79100
O361        O  0.87973687  0.38079846  0.48676330    -0.79200
O362        O  0.02663530  0.58911426  0.91048290    -0.79100
O363        O  0.90429964  0.59965341  0.01430352    -0.79100
O364        O  0.00724926  0.37628945  0.94716910    -0.79100
C365        C  0.00571599  0.40080333  0.90923409     1.10600
C366        C  0.83852936  0.47038840  0.52735876     1.10500
C367        C  0.87079733  0.31927590  0.49104909     1.10600
C368        C  0.96020266  0.56595998  0.90663290     1.10500
O369        O  0.14161988  0.63669398  0.97614395    -0.79100
O370        O  0.93280115  0.37323486  0.57636561    -0.79200
O371        O  0.13652008  0.45769497  0.50099488    -0.79100
O372        O  0.99582321  0.59637137  0.56511464    -0.79100
O373        O  0.99166269  0.50325716  0.59018765    -0.79100
O374        O  0.14358213  0.51226711  0.96052129    -0.79100
O375        O  0.06040608  0.66906170  0.97857675    -0.79100
O376        O  0.04403799  0.39926363  0.57128969    -0.79100
Co377      Co  0.07595569  0.54571366  0.94310334     1.51500
Co378      Co  0.93854659  0.44894211  0.53592511     1.51700
Co379      Co  0.03097004  0.39421287  0.50516182     1.51600
Co380      Co  0.97722818  0.57299221  0.99997348     1.51500
O381        O  0.02716760  0.48843786  0.50639115    -1.41000
C382        C  0.12706854  0.68587028  0.97918016     1.10500
C383        C  0.98899436  0.37678157  0.59394772     1.10600
C384        C  0.15324145  0.48212997  0.99388046     1.10500
C385        C  0.99824724  0.56185651  0.59787100     1.10500
O386        O  0.36713361  0.49568522  0.94158069    -0.79100
O387        O  0.60211333  0.55847902  0.58242012    -0.79100
O388        O  0.41880025  0.41550090  0.58274324    -0.79100
O389        O  0.54299568  0.66239979  0.02718282    -0.79100
O390        O  0.52025105  0.41508570  0.58810392    -0.79200
O391        O  0.46243695  0.61976450  0.97248138    -0.79100
O392        O  0.68305016  0.64993754  0.54517282    -0.79100
O393        O  0.35381766  0.45152973  0.51781914    -0.79100
C394        C  0.32762904  0.48572504  0.97344919     1.10600
C395        C  0.65695031  0.62243072  0.58237369     1.10500
C396        C  0.46576754  0.40960551  0.60575864     1.10600
C397        C  0.49351736  0.66320588  0.00442174     1.10500
O398        O  0.48602325  0.57903701  0.89416542    -0.79100
O399        O  0.54322360  0.39802442  0.49527144    -0.79200
O400        O  0.37247311  0.38571640  0.94897533    -0.79100
O401        O  0.64501176  0.57211310  0.98403643    -0.79100
O402        O  0.65418205  0.47766781  0.55351646    -0.79100
O403        O  0.47784535  0.45969515  0.92402535    -0.79100
O404        O  0.58393327  0.63470435  0.93959909    -0.79100
O405        O  0.43864649  0.32803749  0.52181650    -0.79100
Co406      Co  0.47436025  0.53938355  0.95090897     1.51500
Co407      Co  0.56895110  0.47813537  0.53689409     1.51700
Co408      Co  0.40099925  0.39603784  0.51891869     1.51600
Co409      Co  0.58718001  0.60995957  0.00698217     1.51500
O410        O  0.49209015  0.49050304  0.50930577    -1.41000
C411        C  0.55236022  0.62474521  0.90039312     1.10500
C412        C  0.49447467  0.33630291  0.50458374     1.10600
C413        C  0.41756787  0.40293501  0.91946665     1.10500
C414        C  0.68325380  0.50620501  0.51791466     1.10500
C415        C  0.22072585  0.48175786  0.00030336    -0.15400
C416        C  0.26497004  0.49488773  0.96749911    -0.30600
H417        H  0.23143279  0.46440877  0.03251092     0.13600
H418        H  0.25008448  0.46656333  0.52007759     0.14200
C419        C  0.76738491  0.46363400  0.52784593    -0.15400
C420        C  0.74792437  0.50515260  0.50552681    -0.30600
H421        H  0.73159504  0.42676824  0.55202558     0.13600
H422        H  0.77129463  0.58173125  0.97362209     0.14200
C423        C  0.47514384  0.71764508  0.01388152    -0.15400
C424        C  0.51672011  0.78455985  0.99962841    -0.30600
H425        H  0.43063544  0.70401414  0.03464309     0.13600
H426        H  0.61205459  0.78947134  0.53393977     0.14200
C427        C  0.46196164  0.20934477  0.51177762    -0.15400
C428        C  0.50624305  0.27578504  0.49752124    -0.30600
H429        H  0.41312830  0.19788531  0.52745911     0.13600
H430        H  0.41071398  0.20306298  0.03060551     0.14200
C431        C  0.18874348  0.76293918  0.98398978    -0.15400
C432        C  0.29206691  0.75758829  0.48508167    -0.30600
H433        H  0.21963606  0.77083829  0.52127996     0.13600
H434        H  0.26911939  0.74316908  0.96517369     0.14200
C435        C  0.73114649  0.22866735  0.00315119    -0.15400
C436        C  0.79602450  0.25545086  0.48407944    -0.30600
H437        H  0.81778762  0.17186905  0.49304567     0.13600
H438        H  0.73658851  0.28277052  0.94361347     0.14200
C439        C  0.65948721  0.03801765  0.63438589    -0.15400
C440        C  0.63008995  0.03217261  0.67362596    -0.30600
H441        H  0.71657337  0.05648571  0.63381285     0.13600
H442        H  0.57368559  0.01692331  0.67362489     0.14200
C443        C  0.65795473  0.02013819  0.88199688    -0.15400
C444        C  0.63649930  0.02939203  0.84071923    -0.30600
H445        H  0.70490742  0.01464339  0.88708154     0.13600
H446        H  0.59169927  0.03859472  0.83689510     0.14200
C447        C  0.68177331  0.66324931  0.62526621    -0.15400
C448        C  0.64249632  0.63448519  0.66139920    -0.30600
H449        H  0.72922488  0.71632765  0.62668184     0.13600
H450        H  0.59440233  0.58180717  0.65802461     0.14200
C451        C  0.58043015  0.63600868  0.82095164    -0.15400
C452        C  0.59610262  0.66372898  0.86255829    -0.30600
H453        H  0.53141905  0.58521866  0.81381516     0.13600
H454        H  0.64685833  0.71283830  0.86979589     0.14200
C455        C  0.71608039  0.85664533  0.73233493    -0.15400
C456        C  0.66774509  0.87751899  0.73408958    -0.30600
H457        H  0.77329022  0.89563118  0.73198572     0.13600
H458        H  0.61094131  0.83692564  0.73474140     0.14200
C459        C  0.98801035  0.63358683  0.65821402    -0.15400
C460        C  0.00361900  0.58460338  0.64485725    -0.30600
H461        H  0.97763426  0.66382404  0.63331022     0.13600
H462        H  0.01404881  0.55416914  0.66951612     0.14200
C463        C  0.96431644  0.58529551  0.82566656    -0.15400
C464        C  0.93047855  0.57792157  0.86379152    -0.30600
H465        H  0.00737895  0.57344793  0.82685142     0.13600
H466        H  0.88775645  0.58979337  0.86489225     0.14200
C467        C  0.85117896  0.70318618  0.73335378    -0.15400
C468        C  0.82396368  0.71939338  0.76693959    -0.30600
H469        H  0.83056870  0.70048193  0.69955626     0.13600
H470        H  0.84632038  0.72163251  0.80028244     0.14200
C471        C  0.37589173  0.94129897  0.64192727    -0.15400
C472        C  0.34293896  0.97588932  0.65492491    -0.28800
H473        H  0.38576662  0.90879054  0.66533667     0.13600
H474        H  0.32890182  0.00393181  0.63028129     0.14200
C475        C  0.33587697  0.99122742  0.86460677    -0.15400
C476        C  0.35909979  0.98250784  0.82553412    -0.30600
H477        H  0.28786271  0.99517646  0.86483136     0.13600
H478        H  0.40758179  0.97942322  0.82506984     0.14200
C479        C  0.13345643  0.86102899  0.72761342    -0.15400
C480        C  0.08995793  0.82513531  0.76026815    -0.30600
H481        H  0.11981594  0.84019733  0.69396671     0.13600
H482        H  0.10476141  0.84791429  0.79348581     0.14200
C483        C  0.39343044  0.38024138  0.67061082    -0.15400
C484        C  0.45506113  0.39394134  0.65323563    -0.30600
H485        H  0.35074578  0.37948998  0.64965223     0.13600
H486        H  0.49579024  0.38994928  0.67347437     0.14200
C487        C  0.41962864  0.38865380  0.83850216    -0.15400
C488        C  0.39373324  0.36063257  0.87790192    -0.30600
H489        H  0.46617689  0.44216381  0.83702310     0.13600
H490        H  0.34558756  0.30801226  0.87855516     0.14200
C491        C  0.33816079  0.17955906  0.73754579    -0.15400
C492        C  0.28014623  0.11561590  0.72674024    -0.30600
H493        H  0.38917056  0.18248099  0.74576304     0.13600
H494        H  0.22798633  0.10977814  0.71834018     0.14200
C495        C  0.04571999  0.36523883  0.66523414    -0.15400
C496        C  0.98845045  0.35808902  0.64113512    -0.30600
H497        H  0.09608571  0.38179817  0.64999648     0.13600
H498        H  0.93821745  0.33896578  0.65730870     0.14200
C499        C  0.99657906  0.35760984  0.86952614    -0.15400
C500        C  0.00688963  0.38396261  0.82815040    -0.30600
H501        H  0.98877783  0.30487773  0.87480911     0.13600
H502        H  0.01547800  0.43685015  0.82230217     0.14200
C503        C  0.14587216  0.28026243  0.77369974    -0.15400
C504        C  0.19010681  0.28744887  0.74207551    -0.30600
H505        H  0.16108173  0.27535690  0.80770937     0.13600
H506        H  0.17610304  0.29178204  0.70773382     0.14200
C507        C  0.89448604  0.16497422  0.73097730    -0.15400
C508        C  0.86081234  0.11364271  0.76037872    -0.30600
H509        H  0.86623470  0.16497439  0.70027982     0.13600
H510        H  0.89010401  0.11829356  0.79168453     0.14200
loop_ 
_geom_bond_atom_site_label_1 
_geom_bond_atom_site_label_2 
_geom_bond_distance 
_geom_bond_site_symmetry_2 
_ccdc_geom_bond_type 
C1            C2   1.525   1_655  S
C1            C7   1.528       .  S
C1            C5   1.546       .  S
C1          C245   1.529       .  S
C2            H9   1.088       .  S
C2            C3   1.359       .  D
C3            C4   1.559   1_455  S
C3          C248   1.500       .  S
C4            C8   1.549       .  S
C4            C6   1.551       .  S
C4           H10   1.111   1_655  S
C5           H11   1.086       .  S
C5            C6   1.378       .  D
C6          C240   1.494       .  S
C7           H12   1.087       .  S
C7            C8   1.371       .  D
C8          C252   1.492       .  S
C13          C14   1.525       .  S
C13          C19   1.541       .  S
C13          C17   1.548       .  S
C13         C232   1.532       .  S
C14          H21   1.087       .  S
C14          C15   1.358       .  D
C15          C16   1.546       .  S
C15         C236   1.476       .  S
C16          C20   1.547       .  S
C16          C18   1.547       .  S
C16          H22   1.111       .  S
C17          H23   1.085       .  S
C17          C18   1.377       .  D
C18         C228   1.498       .  S
C19          H24   1.085       .  S
C19          C20   1.377       .  D
C20         C249   1.512       .  S
C25          C26   1.535   1_545  S
C25          C31   1.533       .  S
C25          C29   1.544       .  S
C25         C221   1.525       .  S
C26          H33   1.086       .  S
C26          C27   1.371       .  D
C27          C28   1.535   1_565  S
C27         C224   1.482       .  S
C28          C32   1.538       .  S
C28          C30   1.536       .  S
C28          H34   1.111       .  S
C29          H35   1.085       .  S
C29          C30   1.370       .  D
C30         C217   1.477       .  S
C31          H36   1.087       .  S
C31          C32   1.367       .  D
C32         C237   1.482       .  S
C37          C38   1.532   1_455  S
C37          C43   1.523       .  S
C37          C41   1.536       .  S
C37         C208   1.517       .  S
C38          H45   1.086       .  S
C38          C39   1.372       .  D
C39          C40   1.550   1_655  S
C39         C212   1.500       .  S
C40          C44   1.544       .  S
C40          C42   1.551       .  S
C40          H46   1.111       .  S
C41          H47   1.083       .  S
C41          C42   1.376       .  D
C42         C204   1.500       .  S
C43          H48   1.088       .  S
C43          C44   1.358       .  D
C44         C225   1.471       .  S
C49          C50   1.519       .  S
C49          C55   1.525       .  S
C49          C53   1.551       .  S
C49         C196   1.524       .  S
C50          H57   1.087       .  S
C50          C51   1.365       .  D
C51          C52   1.548       .  S
C51         C200   1.492       .  S
C52          C56   1.554       .  S
C52          C54   1.541       .  S
C52          H58   1.110       .  S
C53          H59   1.085       .  S
C53          C54   1.380       .  D
C54         C193   1.495       .  S
C55          H60   1.087       .  S
C55          C56   1.365       .  D
C56         C213   1.490       .  S
C61          C62   1.528   1_565  S
C61          C67   1.535       .  S
C61          C65   1.531       .  S
C61         C189   1.533   1_565  S
C62          H69   1.088       .  S
C62          C63   1.363       .  D
C63          C64   1.546   1_545  S
C63         C253   1.482       .  S
C64          C68   1.547       .  S
C64          C66   1.565       .  S
C64          H70   1.109       .  S
C65          H71   1.085       .  S
C65          C66   1.373       .  D
C66         C185   1.506       .  S
C67          H72   1.084       .  S
C67          C68   1.367       .  D
C68         C201   1.482       .  S
O73          C81   1.265       .  A
O73         Co93   1.985       .  S
O74          C82   1.300       .  A
O74         Co94   2.117       .  S
O75          C83   1.255   1_545  A
O75         Co95   1.972       .  S
O76          C84   1.268       .  A
O76         Co96   2.021   1_545  S
O77          C83   1.264       .  A
O77         Co94   2.017       .  S
O78          C84   1.266       .  A
O78         Co93   2.006       .  S
O79          C82   1.270   1_545  A
O79        Co351   1.915       .  S
O80         C336   1.255   1_554  A
O80         Co95   1.946       .  S
C81         O335   1.266       .  A
C81         C427   1.492       .  S
C82         C184   1.502       .  S
C83         C216   1.484       .  S
C84         C180   1.507       .  S
O85          C98   1.274   1_545  A
O85         Co93   2.038       .  S
O86          C99   1.272       .  A
O86         Co94   2.004   1_556  S
O87         C100   1.262   1_565  A
O87        Co350   1.982       .  S
O88         C356   1.285       .  A
O88         Co96   2.053       .  S
O89         C101   1.266       .  A
O89         Co94   1.898       .  S
O90         C100   1.264       .  A
O90         Co93   1.998       .  S
O91          C98   1.256       .  A
O91         Co96   1.953       .  S
O92          C99   1.276   1_554  A
O92         Co95   2.061   1_565  S
Co93        O352   2.139       .  S
Co94         O97   2.028   1_564  S
Co95        O342   2.050   1_554  S
Co95         O97   2.087   1_554  S
Co96        O334   2.012   1_565  S
Co96        O352   2.099   1_565  S
O97        Co348   2.050       .  S
O97        Co351   2.051   1_556  S
C98         C188   1.485       .  S
C99         C177   1.521       .  S
C100        C220   1.483       .  S
C101        O343   1.298   1_554  A
C101        C424   1.480   1_554  S
O102        C110   1.264       .  A
O102       Co122   1.995   1_655  S
O103        C111   1.282       .  A
O103       Co123   1.940       .  S
O104        C112   1.278   1_554  A
O104       Co124   2.060   1_655  S
O105        C113   1.303   1_655  A
O105       Co125   2.104       .  S
O106        C112   1.271       .  A
O106       Co123   1.997   1_556  S
O107        C113   1.270       .  A
O107       Co122   1.879       .  S
O108        C366   1.304       .  A
O108       Co125   2.097       .  S
O109        C110   1.267   1_455  A
O109       Co379   2.003       .  S
C110        C244   1.481       .  S
C111        O363   1.301       .  A
C111        C164   1.464       .  S
C112        C181   1.519       .  S
C113        C209   1.476       .  S
O114        C127   1.257       .  A
O114       Co122   2.017       .  S
O115        C128   1.272       .  A
O115       Co123   2.039       .  S
O116        C384   1.259   1_554  A
O116       Co124   1.965       .  S
O117        C130   1.237       .  A
O117       Co380   2.002   1_454  S
O118        C130   1.236   1_655  A
O118       Co123   1.998       .  S
O119        C129   1.268       .  A
O119       Co122   2.007       .  S
O120        C127   1.262       .  A
O120       Co125   2.010   1_455  S
O121        C128   1.258       .  A
O121       Co124   1.979   1_655  S
Co122       O381   1.976       .  S
Co123       O126   2.064   1_654  S
Co124       O364   2.013   1_554  S
Co124       O126   2.091   1_554  S
Co125       O372   2.036       .  S
Co125       O381   2.250   1_655  S
O126       Co377   2.098       .  S
O126       Co380   2.074   1_455  S
C127        C176   1.510       .  S
C128        C241   1.495       .  S
C129        O371   1.273       .  A
C129        C160   1.483       .  S
C130        C205   1.477       .  S
O131        C139   1.284       .  A
O131       Co151   2.040       .  S
O132        C140   1.288       .  A
O132       Co152   2.031       .  S
O133        C141   1.258       .  A
O133       Co153   1.979       .  S
O134        C142   1.251       .  A
O134       Co154   2.004       .  S
O135        C141   1.290       .  A
O135       Co152   2.073       .  S
O136        C142   1.258       .  A
O136       Co151   2.016       .  S
O137        C140   1.274       .  A
O137       Co409   2.022       .  S
O138        C394   1.262   1_554  A
O138       Co153   1.968       .  S
C139        O393   1.262       .  A
C139        C161   1.470       .  S
C140        C192   1.490       .  S
C141        C229   1.493       .  S
C142        C168   1.498       .  S
O143        C156   1.282       .  A
O143       Co151   1.862       .  S
O144        C157   1.261       .  A
O144       Co152   1.879       .  S
O145        C158   1.274       .  A
O145       Co408   2.022       .  S
O146        C414   1.296       .  A
O146       Co154   2.099       .  S
O147        C159   1.252       .  A
O147       Co152   1.992       .  S
O148        C158   1.267       .  A
O148       Co151   1.979       .  S
O149        C156   1.320       .  A
O149       Co154   2.140       .  S
O150        C157   1.297       .  A
O150       Co153   2.104       .  S
Co151       O410   1.923       .  S
Co152       O155   1.952       .  S
Co153       O400   2.012   1_554  S
Co153       O155   2.149       .  S
Co154       O392   1.949       .  S
Co154       O410   2.065       .  S
O155       Co406   1.976   1_554  S
O155       Co409   2.133       .  S
C156        C197   1.484       .  S
C157        C173   1.475       .  S
C158        C233   1.491       .  S
C159        O401   1.245   1_554  A
C159        C165   1.473       .  S
C160        H162   1.087       .  S
C160        C161   1.336       .  D
C161        H418   1.089       .  S
H163        C416   1.099       .  S
C164        H166   1.090       .  S
C164        C165   1.337       .  D
C165        H422   1.090   1_554  S
H167        C420   1.091       .  S
C168        H170   1.085       .  S
C168        C169   1.355       .  D
C169        H426   1.085       .  S
C169        C356   1.500       .  S
H171        C424   1.088       .  S
C172        H174   1.088       .  S
C172        C173   1.354   1_556  D
C172        C336   1.481       .  S
C173        H430   1.088       .  S
H175        C428   1.090       .  S
C176        H433   1.085       .  S
C176        C432   1.367       .  D
C177        H434   1.086       .  S
C177        C431   1.371       .  D
H178        C431   1.085       .  S
H179        C432   1.084       .  S
C180        H437   1.089       .  S
C180        C436   1.360       .  D
C181        H438   1.086       .  S
C181        C435   1.370   1_556  D
H182        C435   1.087       .  S
H183        C436   1.090       .  S
C184        H186   1.085   1_565  S
C184        C185   1.351       .  D
C185        H187   1.087       .  S
C188        H190   1.083       .  S
C188        C189   1.351   1_565  D
C189        H191   1.089       .  S
C192        H194   1.086       .  S
C192        C193   1.346       .  D
C193        H195   1.086       .  S
C196        H198   1.087       .  S
C196        C197   1.360       .  D
C197        H199   1.086       .  S
C200        H202   1.085       .  S
C200        C201   1.344       .  D
C201        H203   1.089       .  S
C204        H206   1.087       .  S
C204        C205   1.351       .  D
C205        H207   1.083       .  S
C208        H210   1.087       .  S
C208        C209   1.348       .  D
C209        H211   1.086   1_455  S
C212        H214   1.085       .  S
C212        C213   1.349       .  D
C213        H215   1.087       .  S
C216        H218   1.087       .  S
C216        C217   1.349   1_565  D
C217        H219   1.086       .  S
C220        H222   1.087   1_545  S
C220        C221   1.352       .  D
C221        H223   1.087       .  S
C224        H226   1.086       .  S
C224        C225   1.339       .  D
C225        H227   1.088       .  S
C228        H230   1.086       .  S
C228        C229   1.352       .  D
C229        H231   1.085       .  S
C232        H234   1.086       .  S
C232        C233   1.356       .  D
C233        H235   1.087       .  S
C236        H238   1.087       .  S
C236        C237   1.342       .  D
C237        H239   1.086       .  S
C240        H242   1.086   1_655  S
C240        C241   1.356       .  D
C241        H243   1.086       .  S
C244        H246   1.088       .  S
C244        C245   1.353       .  D
C245        H247   1.086       .  S
C248        H250   1.085       .  S
C248        C249   1.350       .  D
C249        H251   1.085       .  S
C252        H254   1.086       .  S
C252        C253   1.342       .  D
C253        H255   1.088       .  S
C256        C257   1.526       .  S
C256        C262   1.526   1_455  S
C256        C260   1.545       .  S
C256        C500   1.520       .  S
C257        H264   1.087       .  S
C257        C258   1.360       .  D
C258        C259   1.547       .  S
C258        C503   1.480       .  S
C259        C263   1.545   1_455  S
C259        C261   1.538       .  S
C259        H265   1.111       .  S
C260        H266   1.086       .  S
C260        C261   1.375       .  D
C261        C495   1.484       .  S
C262        H267   1.087       .  S
C262        C263   1.368       .  D
C263        C507   1.482       .  S
C268        C269   1.527       .  S
C268        C274   1.534       .  S
C268        C272   1.541       .  S
C268        C487   1.519       .  S
C269        H276   1.087       .  S
C269        C270   1.366       .  D
C270        C271   1.539       .  S
C270        C491   1.472       .  S
C271        C275   1.538       .  S
C271        C273   1.537       .  S
C271        H277   1.111       .  S
C272        H278   1.086       .  S
C272        C273   1.370       .  D
C273        C483   1.470       .  S
C274        H279   1.086       .  S
C274        C275   1.370       .  D
C275        C504   1.492       .  S
C280        C281   1.517       .  S
C280        C286   1.518   1_565  S
C280        C284   1.552       .  S
C280        C476   1.516       .  S
C281        H288   1.086       .  S
C281        C282   1.368       .  D
C282        C283   1.546       .  S
C282        C479   1.487       .  S
C283        C287   1.545   1_565  S
C283        C285   1.548       .  S
C283        H289   1.111       .  S
C284        H290   1.085       .  S
C284        C285   1.379       .  D
C285        C472   1.498       .  S
C286        H291   1.087       .  S
C286        C287   1.363       .  D
C287        C492   1.487       .  S
C292        C293   1.531       .  S
C292        C298   1.528   1_655  S
C292        C296   1.550       .  S
C292        C463   1.534       .  S
C293        H300   1.085       .  S
C293        C294   1.372       .  D
C294        C295   1.539       .  S
C294        C467   1.481       .  S
C295        C299   1.536   1_655  S
C295        C297   1.545       .  S
C295        H301   1.111       .  S
C296        H302   1.084       .  S
C296        C297   1.381       .  D
C297        C459   1.509       .  S
C298        H303   1.087       .  S
C298        C299   1.362       .  D
C299        C480   1.473       .  S
C304        C305   1.518       .  S
C304        C310   1.526       .  S
C304        C308   1.543       .  S
C304        C451   1.525       .  S
C305        H312   1.087       .  S
C305        C306   1.369       .  D
C306        C307   1.550       .  S
C306        C455   1.486       .  S
C307        C311   1.545       .  S
C307        C309   1.545       .  S
C307        H313   1.109       .  S
C308        H314   1.086       .  S
C308        C309   1.379       .  D
C309        C448   1.497       .  S
C310        H315   1.087       .  S
C310        C311   1.362       .  D
C311        C468   1.473       .  S
C316        C317   1.520       .  S
C316        C322   1.527   1_545  S
C316        C320   1.547       .  S
C316        C444   1.521       .  S
C317        H324   1.087       .  S
C317        C318   1.362       .  D
C318        C319   1.550       .  S
C318        C508   1.477       .  S
C319        C323   1.541   1_545  S
C319        C321   1.552       .  S
C319        H325   1.109       .  S
C320        H326   1.087       .  S
C320        C321   1.375       .  D
C321        C440   1.504       .  S
C322        H327   1.087       .  S
C322        C323   1.366       .  D
C323        C456   1.471       .  S
O328        C336   1.275       .  A
O328       Co348   2.037       .  S
O329        C337   1.253   1_565  A
O329       Co349   2.001       .  S
O330        C338   1.269       .  A
O330       Co350   1.984       .  S
O331        C339   1.277   1_554  A
O331       Co351   2.005       .  S
O332        C338   1.278       .  A
O332       Co349   2.032       .  S
O333        C339   1.279       .  A
O333       Co348   2.056       .  S
O334        C337   1.258       .  A
O335       Co350   2.005   1_545  S
C337        C439   1.497       .  S
C338        C471   1.496       .  S
C339        C435   1.520   1_556  S
O340        C353   1.246       .  A
O340       Co348   1.949       .  S
O341        C354   1.267       .  A
O341       Co349   2.019       .  S
O342        C355   1.275       .  A
O343       Co351   2.111   1_566  S
O344        C356   1.276       .  A
O344       Co349   1.962       .  S
O345        C355   1.245   1_565  A
O345       Co348   1.934   1_565  S
O346        C353   1.267       .  A
O346       Co351   2.042   1_556  S
O347        C354   1.261       .  A
O347       Co350   2.009       .  S
Co349       O352   2.033   1_565  S
Co350       O352   2.097   1_565  S
C353        C443   1.488       .  S
C354        C432   1.515       .  S
C355        C475   1.484   1_545  S
O357        C365   1.256       .  A
O357       Co377   1.964       .  S
O358        C366   1.268       .  A
O358       Co378   1.873       .  S
O359        C367   1.272       .  A
O359       Co379   2.057   1_655  S
O360        C368   1.267       .  A
O360       Co380   2.022       .  S
O361        C367   1.264       .  A
O361       Co378   1.994       .  S
O362        C368   1.255   1_455  A
O362       Co377   1.980       .  S
O363       Co380   2.012   1_554  S
O364        C365   1.269       .  A
C365        C499   1.482   1_455  S
C366        C419   1.471       .  S
C367        C436   1.506       .  S
C368        C464   1.498       .  S
O369        C382   1.273       .  A
O369       Co377   1.996       .  S
O370        C383   1.267       .  A
O370       Co378   2.004       .  S
O371       Co379   1.984       .  S
O372        C385   1.255       .  A
O373        C385   1.239       .  A
O373       Co378   1.973       .  S
O374        C384   1.266       .  A
O374       Co377   1.991       .  S
O375        C382   1.293       .  A
O375       Co380   2.071   1_455  S
O376        C383   1.270   1_455  A
O376       Co379   2.007       .  S
Co378       O381   1.922   1_655  S
Co379       O381   2.106       .  S
C382        C431   1.524       .  S
C383        C496   1.482       .  S
C384        C415   1.468   1_556  S
C385        C460   1.495   1_655  S
O386        C394   1.267       .  A
O386       Co406   2.010       .  S
O387        C395   1.290       .  A
O387       Co407   2.044       .  S
O388        C396   1.262       .  A
O388       Co408   1.963       .  S
O389        C397   1.250       .  A
O389       Co409   1.954       .  S
O390        C396   1.270       .  A
O390       Co407   2.013       .  S
O391        C397   1.262   1_556  A
O391       Co406   2.026       .  S
O392        C395   1.287       .  A
O393       Co408   1.946       .  S
C394        C416   1.471       .  S
C395        C447   1.498       .  S
C396        C484   1.479       .  S
C397        C423   1.473       .  S
O398        C411   1.265       .  A
O398       Co406   1.887       .  S
O399        C412   1.256       .  A
O399       Co407   1.990       .  S
O400        C413   1.267       .  A
O401       Co409   1.978   1_556  S
O402        C414   1.266       .  A
O402       Co407   1.892       .  S
O403        C413   1.260       .  A
O403       Co406   1.973       .  S
O404        C411   1.302       .  A
O404       Co409   2.114   1_556  S
O405        C412   1.268       .  A
O405       Co408   2.030       .  S
Co407       O410   1.962       .  S
Co408       O410   2.027       .  S
C411        C452   1.484       .  S
C412        C428   1.492       .  S
C413        C488   1.478       .  S
C414        C420   1.481       .  S
C415        H417   1.099       .  S
C415        C416   1.343   1_554  D
C419        H421   1.092       .  S
C419        C420   1.344       .  D
C423        H425   1.086       .  S
C423        C424   1.347   1_554  D
C427        H429   1.089       .  S
C427        C428   1.348       .  D
C439        H441   1.087       .  S
C439        C440   1.354       .  D
C440        H442   1.088       .  S
C443        H445   1.086       .  S
C443        C444   1.361       .  D
C444        H446   1.087       .  S
C447        H449   1.086       .  S
C447        C448   1.361       .  D
C448        H450   1.088       .  S
C451        H453   1.086       .  S
C451        C452   1.356       .  D
C452        H454   1.086       .  S
C455        H457   1.086       .  S
C455        C456   1.343       .  D
C456        H458   1.088       .  S
C459        H461   1.086       .  S
C459        C460   1.351   1_655  D
C460        H462   1.085       .  S
C463        H465   1.087   1_655  S
C463        C464   1.366       .  D
C464        H466   1.084       .  S
C467        H469   1.086       .  S
C467        C468   1.342       .  D
C468        H470   1.088       .  S
C471        H473   1.087       .  S
C471        C472   1.353       .  D
C472        H474   1.087   1_565  S
C475        H477   1.087       .  S
C475        C476   1.365       .  D
C476        H478   1.087       .  S
C479        H481   1.086       .  S
C479        C480   1.344       .  D
C480        H482   1.087       .  S
C483        H485   1.086       .  S
C483        C484   1.345       .  D
C484        H486   1.087       .  S
C487        H489   1.087       .  S
C487        C488   1.348       .  D
C488        H490   1.087       .  S
C491        H493   1.088       .  S
C491        C492   1.344       .  D
C492        H494   1.085       .  S
C495        H497   1.086       .  S
C495        C496   1.342   1_455  D
C496        H498   1.088       .  S
C499        H501   1.088       .  S
C499        C500   1.355   1_655  D
C500        H502   1.088       .  S
C503        H505   1.087       .  S
C503        C504   1.343       .  D
C504        H506   1.086       .  S
C507        H509   1.086       .  S
C507        C508   1.338       .  D
C508        H510   1.089       .  S
