geometry optimzed in LAMMPS
_audit_creation_date              2020-11-30 
_audit_creation_method            'lammps2cif' 
_symmetry_space_group_name_H-M    'P1' 
_symmetry_Int_Tables_number       1 
_symmetry_cell_setting            triclinic 
loop_ 
_symmetry_equiv_pos_as_xyz 
  x,y,z 
_cell_length_a                    45.92318123 
_cell_length_b                    40.19937347068571 
_cell_length_c                    42.00108747934879 
_cell_angle_alpha                 90.98422892072078 
_cell_angle_beta                  90.70683343160643 
_cell_angle_gamma                 91.03825007749995 
loop_ 
_atom_site_label 
_atom_site_type_symbol 
_atom_site_fract_x 
_atom_site_fract_y 
_atom_site_fract_z 
_atom_site_charge 
N1          N  0.00562042  0.09143911  0.03710108    -0.36300
N2          N  0.06028164  0.05821556  0.99146891    -0.56800
N3          N  0.07581670  0.02460228  0.04588161    -0.36300
N4          N  0.02748607  0.05281442  0.08703165    -0.56800
C5          C  0.99794642  0.08716453  0.00621124     0.27300
C6          C  0.98091177  0.09130185  0.05418084     0.27300
C7          C  0.09325666  0.00891427  0.02425735     0.27300
C8          C  0.08584097  0.01795075  0.07541872     0.27300
C9          C  0.04201111  0.06944606  0.48387706     0.35900
C10         C  0.07900520  0.03664049  0.48159315     0.35900
C11         C  0.00254667  0.06299778  0.10121996     0.35900
C12         C  0.04589644  0.04223349  0.10999325     0.35900
C13         C  0.46675660  0.09409493  0.00839298    -0.21500
C14         C  0.45672711  0.09508238  0.03909930    -0.21500
C15         C  0.11379472  0.99090142  0.04057437    -0.21500
C16         C  0.10948045  0.99693256  0.07259624    -0.21500
C17         C  0.04570204  0.06130201  0.45211060    -0.22600
C18         C  0.06899987  0.04027900  0.45046530    -0.22600
C19         C  0.00443238  0.05730730  0.13344841    -0.22600
C20         C  0.03193712  0.04505897  0.13918433    -0.22600
C21         C  0.00941675  0.05993262  0.98993075    -0.18000
C22         C  0.97842736  0.07797095  0.08540909    -0.18000
C23         C  0.07507770  0.03078697  0.10501042    -0.17900
C24         C  0.09346525  0.00861933  0.49413657    -0.17900
H25         H  0.45297379  0.09026855  0.98749510     0.15000
H26         H  0.43387920  0.09352164  0.04469144     0.15000
H27         H  0.13069088  0.97572199  0.03046234     0.15000
H28         H  0.12207607  0.98631783  0.09172244     0.15000
H29         H  0.02954971  0.06379359  0.43335195     0.13200
H30         H  0.07376799  0.02560916  0.42951080     0.13200
H31         H  0.98814460  0.06262984  0.15113797     0.13200
H32         H  0.03990700  0.03811248  0.16236714     0.13200
H33         H  0.02682292  0.08844983  0.04528962     0.26500
H34         H  0.05751538  0.03850575  0.04166350     0.26500
N35         N  0.50977592  0.99204147  0.46131435    -0.36300
N36         N  0.45396192  0.01647209  0.00934671    -0.56800
N37         N  0.41663765  0.97521323  0.47048553    -0.36300
N38         N  0.46281404  0.95520827  0.42607815    -0.56800
C39         C  0.51834497  0.99966081  0.49119680     0.27300
C40         C  0.51754012  0.96051023  0.45624315     0.27300
C41         C  0.39819509  0.98390777  0.99246410     0.27300
C42         C  0.40091073  0.97152369  0.44308627     0.27300
C43         C  0.47991741  0.01976396  0.02406348     0.35900
C44         C  0.43790713  0.99668408  0.02787330     0.35900
C45         C  0.48704306  0.94269429  0.41220754     0.35900
C46         C  0.43946387  0.94526077  0.40827163     0.35900
C47         C  0.03036920  0.97438019  0.50885999    -0.21500
C48         C  0.03081292  0.94936034  0.48639672    -0.21500
C49         C  0.37403500  0.99994817  0.47860825    -0.21500
C50         C  0.37422956  0.98690404  0.44765250    -0.21500
C51         C  0.48061428  0.00099709  0.05145122    -0.22600
C52         C  0.45322468  0.98756300  0.05471604    -0.22600
C53         C  0.47943171  0.92468911  0.38512071    -0.22600
C54         C  0.44935638  0.92592417  0.38269800    -0.22600
C55         C  0.50424900  0.02818467  0.00666269    -0.18000
C56         C  0.51482187  0.94456033  0.42705277    -0.18000
C57         C  0.40976390  0.95394261  0.41468174    -0.18300
C58         C  0.40818617  0.99373762  0.02330408    -0.17900
H59         H  0.03711429  0.97244380  0.53348835     0.15000
H60         H  0.03858709  0.92441293  0.48982536     0.15000
H61         H  0.35249030  0.99991940  0.99034531     0.15000
H62         H  0.35674411  0.98904338  0.43035924     0.15000
H63         H  0.49922249  0.99648167  0.06667464     0.13200
H64         H  0.44558266  0.97229801  0.07398309     0.13200
H65         H  0.49374817  0.91074828  0.36980721     0.13200
H66         H  0.43658251  0.91282021  0.36455126     0.13200
H67         H  0.49872444  0.00730905  0.44550125     0.26500
H68         H  0.43681950  0.96476923  0.47520497     0.26500
In69       In  0.38685355  0.42565418  0.10081723     1.36900
C70         C  0.38936900  0.47460919  0.05741804     0.77900
O71         O  0.34084639  0.43367543  0.11718710    -0.60500
O72         O  0.37501913  0.43787776  0.15119817    -0.51400
C73         C  0.37233445  0.36271584  0.08534664     0.70600
O74         O  0.36246812  0.38696227  0.07005953    -0.46300
C75         C  0.44474031  0.42870281  0.11307249     0.75300
O76         O  0.39483701  0.44474094  0.05049654    -0.58200
O77         O  0.42706453  0.44815757  0.12617845    -0.48200
O78         O  0.37934071  0.47829332  0.08490882    -0.54600
C79         C  0.34802725  0.44008593  0.14570787     0.85500
O80         O  0.38826859  0.37082293  0.10899246    -0.56500
O81         O  0.43236027  0.40479096  0.09827655    -0.59800
In82       In  0.38997866  0.05649402  0.09674797     1.36900
C83         C  0.39257763  0.01295292  0.04795184     0.77900
O84         O  0.42992075  0.09074164  0.10148731    -0.60500
O85         O  0.43734847  0.03972691  0.10523203    -0.51400
C86         C  0.36967921  0.11686309  0.08519461     0.70600
O87         O  0.37391977  0.09565949  0.06320469    -0.46300
C88         C  0.35162078  0.03453327  0.14007312     0.75300
O89         O  0.38509125  0.04269721  0.04391345    -0.58200
O90         O  0.37707949  0.04467368  0.14754927    -0.48200
O91         O  0.39455463  0.00490357  0.07680532    -0.54600
C92         C  0.44850447  0.06823751  0.10148732     0.85500
O93         O  0.37471559  0.10639702  0.11283911    -0.56500
O94         O  0.34661961  0.03443051  0.11053600    -0.59800
N95         N  0.98375501  0.49122619  0.06656219    -0.36300
N96         N  0.02817394  0.45618283  0.10428802    -0.56800
N97         N  0.07532304  0.47732154  0.06348053    -0.36300
N98         N  0.03641900  0.51974931  0.02266742    -0.56800
C99         C  0.97527202  0.45949744  0.07001957     0.27300
C100        C  0.97488084  0.49979546  0.03736118     0.27300
C101        C  0.09048291  0.47388383  0.09107329     0.27300
C102        C  0.09247572  0.49390494  0.04255631     0.27300
C103        C  0.00293941  0.44378305  0.11630425     0.35900
C104        C  0.05030291  0.44819348  0.12404245     0.35900
C105        C  0.01102466  0.52061449  0.00672345     0.35900
C106        C  0.05392666  0.50107317  0.00474569     0.35900
C107        C  0.45974651  0.44306988  0.04654835    -0.21500
C108        C  0.46024553  0.46794843  0.02473145    -0.21500
C109        C  0.11789683  0.48882950  0.08729120    -0.21500
C110        C  0.11914262  0.50120011  0.05664496    -0.21500
C111        C  0.00857133  0.42789629  0.14443839    -0.22600
C112        C  0.03849746  0.43038323  0.14933993    -0.22600
C113        C  0.00912987  0.50338049  0.48143856    -0.22600
C114        C  0.03701306  0.49230319  0.47821071    -0.22600
C115        C  0.97629279  0.44377222  0.09901688    -0.18000
C116        C  0.98583162  0.52794438  0.02295775    -0.18000
C117        C  0.08351288  0.50076318  0.01095180    -0.17900
C118        C  0.08055033  0.45676013  0.11887626    -0.17900
H119        H  0.45221322  0.41769291  0.04236039     0.15000
H120        H  0.45391179  0.46557260  0.99990585     0.15000
H121        H  0.13527226  0.49119692  0.10482714     0.15000
H122        H  0.13741231  0.51410596  0.04609675     0.15000
H123        H  0.99310483  0.41455863  0.15895058     0.13200
H124        H  0.04976652  0.41916078  0.16900199     0.13200
H125        H  0.99094200  0.49787607  0.46548846     0.13200
H126        H  0.04537963  0.47792562  0.45844091     0.13200
H127        H  0.99519657  0.50626232  0.08315749     0.26500
H128        H  0.05490836  0.46699652  0.05782135     0.26500
N129        N  0.48320745  0.59398333  0.49529977    -0.36300
N130        N  0.42705954  0.55402974  0.03608583    -0.56800
N131        N  0.41357189  0.52473997  0.48290145    -0.36300
N132        N  0.46136539  0.55447713  0.44353928    -0.56800
C133        C  0.49065903  0.59231877  0.52638251     0.27300
C134        C  0.50805998  0.59415463  0.47839623     0.27300
C135        C  0.39584609  0.50885508  0.50396160     0.27300
C136        C  0.40229703  0.51979252  0.45326087     0.27300
C137        C  0.45021106  0.56376598  0.05402767     0.35900
C138        C  0.41183623  0.53147667  0.05248691     0.35900
C139        C  0.48663289  0.56518829  0.43020699     0.35900
C140        C  0.44256264  0.54520446  0.41984085     0.35900
C141        C  0.02232556  0.59594339  0.52999547    -0.21500
C142        C  0.03347127  0.59800094  0.49985234    -0.21500
C143        C  0.37404974  0.49181535  0.48724471    -0.21500
C144        C  0.37769217  0.49915393  0.45550928    -0.21500
C145        C  0.44532834  0.55400786  0.08496960    -0.22600
C146        C  0.42104092  0.53333595  0.08416539    -0.22600
C147        C  0.48457667  0.56121374  0.39759040    -0.22600
C148        C  0.45656946  0.54956325  0.39089325    -0.22600
C149        C  0.47769103  0.55838993  0.04105194    -0.18000
C150        C  0.51084868  0.58007284  0.44710422    -0.18000
C151        C  0.41309189  0.53347145  0.42418730    -0.17900
C152        C  0.39814416  0.50338781  0.03714496    -0.17900
H153        H  0.03530785  0.59210915  0.55127099     0.15000
H154        H  0.05652155  0.59741565  0.49525810     0.15000
H155        H  0.36157497  0.46308563  0.99604617     0.15000
H156        H  0.36394688  0.48962046  0.43620661     0.15000
H157        H  0.46114850  0.55504935  0.10430773     0.13200
H158        H  0.41522409  0.51722656  0.10345802     0.13200
H159        H  0.50098171  0.56767298  0.38036430     0.13200
H160        H  0.44826770  0.54424761  0.36717697     0.13200
H161        H  0.46207970  0.58922172  0.48708196     0.26500
H162        H  0.43293941  0.53745839  0.48793513     0.26500
In163      In  0.10127023  0.93317348  0.42537688     1.36900
C164        C  0.10151924  0.98093737  0.47154222     0.77900
O165        O  0.14774157  0.94283180  0.40988580    -0.60500
O166        O  0.11394588  0.94599240  0.37563433    -0.51400
C167        C  0.11420365  0.86960533  0.43129552     0.70600
O168        O  0.11938583  0.89075631  0.45345097    -0.46300
C169        C  0.04298514  0.93391711  0.41848238     0.75300
O170        O  0.09891525  0.95042672  0.47781903    -0.58200
O171        O  0.05961458  0.95330980  0.40352673    -0.48200
O172        O  0.10783656  0.98594365  0.44294878    -0.54600
C173        C  0.14107061  0.94808178  0.38116364     0.85500
O174        O  0.10360119  0.88170087  0.40633952    -0.56500
O175        O  0.05618641  0.91099207  0.43223181    -0.59800
In176      In  0.10112922  0.56325767  0.43770532     1.36900
C177        C  0.09731027  0.52092868  0.48616530     0.77900
O178        O  0.06244949  0.59728857  0.43947466    -0.60500
O179        O  0.05349882  0.54747992  0.42643149    -0.51400
C180        C  0.12362953  0.62375921  0.44428820     0.70600
O181        O  0.12078884  0.60465884  0.46775100    -0.46300
C182        C  0.13727651  0.54017637  0.39356433     0.75300
O183        O  0.10637416  0.55055016  0.49048857    -0.58200
O184        O  0.11148143  0.54846901  0.38703399    -0.48200
O185        O  0.09462752  0.51237271  0.45722399    -0.54600
C186        C  0.04324240  0.57501752  0.43516729     0.85500
O187        O  0.11646891  0.61109462  0.41756681    -0.56500
O188        O  0.14385987  0.54271613  0.42275320    -0.59800
N189        N  0.23071771  0.89103736  0.28815554    -0.36300
N190        N  0.17601613  0.92242254  0.24248589    -0.56800
N191        N  0.16248381  0.95966422  0.29601510    -0.36300
N192        N  0.21051576  0.93214543  0.33758731    -0.56800
C193        C  0.23785590  0.89295581  0.25722977     0.27300
C194        C  0.25577027  0.89150783  0.30530197     0.27300
C195        C  0.14459368  0.97406114  0.27405252     0.27300
C196        C  0.15164651  0.96547964  0.32537505     0.27300
C197        C  0.19941591  0.91355263  0.22563692     0.35900
C198        C  0.16128129  0.94447738  0.22532739     0.35900
C199        C  0.23589905  0.92308682  0.35182759     0.35900
C200        C  0.19259659  0.94389687  0.36030442     0.35900
C201        C  0.26700173  0.88597672  0.25416747    -0.21500
C202        C  0.27852244  0.88499010  0.28448306    -0.21500
C203        C  0.12306430  0.99091869  0.28991254    -0.21500
C204        C  0.12709107  0.98506146  0.32201282    -0.21500
C205        C  0.19548479  0.92351704  0.19458435    -0.22600
C206        C  0.17139874  0.94337467  0.19420871    -0.22600
C207        C  0.23492000  0.93102570  0.38389479    -0.22600
C208        C  0.20741905  0.94337912  0.38945017    -0.22600
C209        C  0.22662472  0.91925105  0.24006354    -0.18000
C210        C  0.25927087  0.90651829  0.33626391    -0.18000
C211        C  0.16285928  0.95349359  0.35513577    -0.17900
C212        C  0.14646042  0.97130752  0.24002833    -0.17900
H213        H  0.27979709  0.88919477  0.23291512     0.15000
H214        H  0.30166673  0.88597715  0.28925907     0.15000
H215        H  0.10553750  0.00479872  0.27936719     0.15000
H216        H  0.11371209  0.99502446  0.34079120     0.15000
H217        H  0.21179099  0.92317436  0.17618205     0.13200
H218        H  0.16623449  0.95931900  0.17462330     0.13200
H219        H  0.25170252  0.92691087  0.40163983     0.13200
H220        H  0.19982230  0.95176372  0.41241220     0.13200
H221        H  0.20970229  0.89508867  0.29608264     0.26500
H222        H  0.18164731  0.94721261  0.29181641     0.26500
N223        N  0.22982655  0.98958621  0.21191878    -0.36300
N224        N  0.27648504  0.02446845  0.17634259    -0.56800
N225        N  0.32300432  0.00380120  0.21907074    -0.36300
N226        N  0.28221529  0.96117188  0.25821959    -0.56800
C227        C  0.22301618  0.02150490  0.20826880     0.27300
C228        C  0.22100149  0.98144262  0.24108940     0.27300
C229        C  0.33878203  0.00845313  0.19242440     0.27300
C230        C  0.33971372  0.98778793  0.24079615     0.27300
C231        C  0.25173611  0.03645133  0.16299533     0.35900
C232        C  0.29903605  0.03210852  0.15727989     0.35900
C233        C  0.25651256  0.96094541  0.27298622     0.35900
C234        C  0.30020953  0.97993820  0.27669569     0.35900
C235        C  0.20971760  0.03406383  0.23520934    -0.21500
C236        C  0.20951742  0.00878743  0.25669585    -0.21500
C237        C  0.36629310  0.99516747  0.19769947    -0.21500
C238        C  0.36684844  0.98230714  0.22823472    -0.21500
C239        C  0.25812611  0.05146234  0.13464174    -0.22600
C240        C  0.28802051  0.04899188  0.13101785    -0.22600
C241        C  0.25790699  0.98069491  0.30038625    -0.22600
C242        C  0.28627680  0.99158140  0.30353809    -0.22600
C243        C  0.22498099  0.03719092  0.17936485    -0.18000
C244        C  0.23120784  0.95341286  0.25582858    -0.18000
C245        C  0.32993917  0.98012433  0.27180226    -0.17900
C246        C  0.32910418  0.02461465  0.16392554    -0.17900
H247        H  0.20191157  0.05900485  0.23921494     0.15000
H248        H  0.20237442  0.01042714  0.28110268     0.15000
H249        H  0.38415603  0.99423182  0.18119269     0.15000
H250        H  0.38499530  0.97034851  0.23972049     0.15000
H251        H  0.24322020  0.06434023  0.11919133     0.13200
H252        H  0.29997423  0.05979350  0.11165504     0.13200
H253        H  0.24014358  0.98728794  0.31579679     0.13200
H254        H  0.29546198  0.00690052  0.32271293     0.13200
H255        H  0.24041025  0.97424983  0.19556314     0.26500
H256        H  0.30230644  0.01277864  0.22353141     0.26500
In257      In  0.14096507  0.42074130  0.18479019     1.36900
C258        C  0.14385593  0.45885799  0.23762081     0.77900
O259        O  0.17928889  0.39303228  0.20186056    -0.60500
O260        O  0.18919445  0.42747587  0.16681538    -0.51400
C261        C  0.12131093  0.35833478  0.18077350     0.70600
O262        O  0.11452868  0.37763437  0.20345713    -0.46300
C263        C  0.10306797  0.44629650  0.14284494     0.75300
O264        O  0.13266864  0.42995174  0.23734166    -0.58200
O265        O  0.12916789  0.43994923  0.13587617    -0.48200
O266        O  0.14955326  0.46973099  0.21026217    -0.54600
C267        C  0.19911011  0.40566951  0.18543322     0.85500
O268        O  0.13648425  0.37176452  0.15954015    -0.56500
O269        O  0.09744483  0.44164539  0.17169542    -0.59800
In270      In  0.13785391  0.04853417  0.17588296     1.36900
C271        C  0.13785446  0.99975368  0.21935861     0.77900
O272        O  0.09150670  0.03661567  0.16045389    -0.60500
O273        O  0.12413893  0.03919987  0.12540931    -0.51400
C274        C  0.12179428  0.11102659  0.18418639     0.70600
O275        O  0.12008196  0.09020645  0.20639318    -0.46300
C276        C  0.19604659  0.04786612  0.16788300     0.75300
O277        O  0.14189294  0.02998957  0.22717718    -0.58200
O278        O  0.17894551  0.02782952  0.15321125    -0.48200
O279        O  0.12998684  0.99560087  0.19072195    -0.54600
C280        C  0.09735277  0.03498539  0.13120253     0.85500
O281        O  0.13203898  0.09983471  0.15856636    -0.56500
O282        O  0.18312873  0.07096993  0.18214287    -0.59800
N283        N  0.25105145  0.46957217  0.33822101    -0.36300
N284        N  0.21089414  0.51955530  0.36156511    -0.56800
N285        N  0.16496537  0.50141528  0.31676238    -0.36300
N286        N  0.19938051  0.44517868  0.29154836    -0.56800
C287        C  0.26400740  0.49977392  0.33618986     0.27300
C288        C  0.26030202  0.45218867  0.31281178     0.27300
C289        C  0.14817210  0.51096791  0.34131448     0.27300
C290        C  0.14789871  0.48600713  0.29426340     0.27300
C291        C  0.23634813  0.53341655  0.37239933     0.35900
C292        C  0.18885721  0.53559230  0.37562602     0.35900
C293        C  0.22414431  0.43200085  0.28065091     0.35900
C294        C  0.18838315  0.46262159  0.26716209     0.35900
C295        C  0.27986245  0.50234553  0.30866026    -0.21500
C296        C  0.27689972  0.47253251  0.29359041    -0.21500
C297        C  0.11938484  0.50163384  0.33368119    -0.21500
C298        C  0.11925378  0.48636897  0.30366147    -0.21500
C299        C  0.23082103  0.55863040  0.39406081    -0.22600
C300        C  0.20067952  0.55983423  0.39642998    -0.22600
C301        C  0.22969351  0.44395999  0.25047481    -0.22600
C302        C  0.20665585  0.46239498  0.24148128    -0.22600
C303        C  0.26342524  0.52445389  0.35952538    -0.18000
C304        C  0.24681801  0.42311541  0.30112841    -0.18000
C305        C  0.15958977  0.47236182  0.26613367    -0.17900
C306        C  0.15853681  0.52862359  0.36937623    -0.17900
H307        H  0.29090596  0.52399271  0.29937157     0.15000
H308        H  0.28417454  0.46734584  0.26988145     0.15000
H309        H  0.10024305  0.50502015  0.34798162     0.15000
H310        H  0.10053267  0.47600459  0.29082759     0.15000
H311        H  0.24661883  0.57495450  0.40600211     0.13200
H312        H  0.18894176  0.57765351  0.41069849     0.13200
H313        H  0.24980581  0.44270782  0.23769841     0.13200
H314        H  0.20409817  0.47506240  0.21913336     0.13200
H315        H  0.23727382  0.46100352  0.35604029     0.26500
H316        H  0.18705151  0.50656180  0.31385575     0.26500
N317        N  0.26294731  0.38093656  0.23666409    -0.36300
N318        N  0.31419458  0.41190800  0.28108968    -0.56800
N319        N  0.32762060  0.45236651  0.23034191    -0.36300
N320        N  0.27978998  0.42397985  0.18849545    -0.56800
C321        C  0.25639656  0.37284737  0.26674956     0.27300
C322        C  0.23838203  0.37714813  0.21834471     0.27300
C323        C  0.34522055  0.46737401  0.25292300     0.27300
C324        C  0.33819420  0.45930097  0.20132015     0.27300
C325        C  0.29575596  0.39578945  0.30048394     0.35900
C326        C  0.33134971  0.43273057  0.29897218     0.35900
C327        C  0.25347962  0.41597969  0.17539629     0.35900
C328        C  0.29680277  0.43760770  0.16628474     0.35900
C329        C  0.22940452  0.35720237  0.26653599    -0.21500
C330        C  0.21857157  0.35845819  0.23586715    -0.21500
C331        C  0.36641819  0.48593821  0.23781833    -0.21500
C332        C  0.36249756  0.48018130  0.20537145    -0.21500
C333        C  0.30457590  0.40232966  0.33165064    -0.22600
C334        C  0.32715946  0.42534354  0.33084730    -0.22600
C335        C  0.25304813  0.42625061  0.14410012    -0.22600
C336        C  0.28078930  0.43899363  0.13800913    -0.22600
C337        C  0.26584497  0.39367742  0.29234183    -0.18000
C338        C  0.23115591  0.39763972  0.19133083    -0.18000
C339        C  0.32672383  0.44693475  0.17142518    -0.17900
C340        C  0.34375272  0.46281736  0.28662321    -0.17900
H341        H  0.21711359  0.34980702  0.28715009     0.15000
H342        H  0.19722528  0.34910183  0.22889748     0.15000
H343        H  0.38384915  0.50056012  0.24900581     0.15000
H344        H  0.37574269  0.49080370  0.18685027     0.15000
H345        H  0.29264634  0.39583740  0.35280263     0.13200
H346        H  0.33643805  0.43736484  0.35183954     0.13200
H347        H  0.23537779  0.42308978  0.12697673     0.13200
H348        H  0.28794205  0.44878272  0.11553270     0.13200
H349        H  0.28210337  0.39302018  0.23181276     0.26500
H350        H  0.30900558  0.43871999  0.23395087     0.26500
In351      In  0.35014350  0.54450364  0.35212963     1.36900
C352        C  0.34989201  0.49235265  0.30892023     0.77900
O353        O  0.39694998  0.53762215  0.36861539    -0.60500
O354        O  0.36436489  0.54070363  0.40320362    -0.51400
C355        C  0.35914220  0.60863803  0.33907059     0.70600
O356        O  0.37254065  0.58588863  0.32445416    -0.46300
C357        C  0.29267040  0.53994516  0.36509831     0.75300
O358        O  0.34892196  0.52241016  0.30062714    -0.58200
O359        O  0.31191335  0.52485128  0.38069052    -0.48200
O360        O  0.35308587  0.48980937  0.33853012    -0.54600
C361        C  0.39107102  0.53700834  0.39779830     0.85500
O362        O  0.34235956  0.59827038  0.36028947    -0.56500
O363        O  0.30313406  0.56024205  0.34554547    -0.59800
In364      In  0.34873099  0.91995563  0.34610163     1.36900
C365        C  0.34549946  0.96168306  0.29699914     0.77900
O366        O  0.30801771  0.88734501  0.34531669    -0.60500
O367        O  0.30203452  0.93789550  0.35585040    -0.51400
C368        C  0.36729929  0.85756428  0.33887781     0.70600
O369        O  0.36628540  0.87765695  0.31598172    -0.46300
C370        C  0.38695076  0.94376585  0.39033741     0.75300
O371        O  0.35398655  0.93215259  0.29316187    -0.58200
O372        O  0.36125628  0.93483639  0.39715823    -0.48200
O373        O  0.34309078  0.97046058  0.32579850    -0.54600
C374        C  0.29009944  0.91034223  0.34829671     0.85500
O375        O  0.36029170  0.87015559  0.36539169    -0.56500
O376        O  0.39212908  0.94194157  0.36097314    -0.59800
C377        C  0.34364788  0.70089163  0.33345269    -0.11000
C378        C  0.37142010  0.71429997  0.32768828     0.15500
C379        C  0.39493083  0.69247830  0.32308774     0.02400
C380        C  0.39012997  0.65794157  0.32529093    -0.15400
C381        C  0.36256565  0.64468118  0.33264298    -0.10200
C382        C  0.33890696  0.66649855  0.33598143     0.09100
C383        C  0.37468890  0.75116428  0.32840746     0.10200
S384        S  0.43164127  0.70655315  0.31498443    -0.24500
H385        H  0.40832751  0.64138702  0.32252449     0.20400
S386        S  0.30235787  0.65091701  0.34298747    -0.30200
H387        H  0.32570545  0.71768668  0.33666671     0.10700
C388        C  0.36583017  0.77053006  0.30249433     0.03900
C389        C  0.36541711  0.80543017  0.30584116    -0.12500
C390        C  0.37360079  0.82149866  0.33470869    -0.08200
C391        C  0.38408755  0.80191330  0.35999568     0.07400
C392        C  0.38409904  0.76712785  0.35672646    -0.13300
S393        S  0.35412939  0.75060992  0.26553661    -0.30200
H394        H  0.35731098  0.82012788  0.28639511     0.11600
S395        S  0.39795563  0.81967908  0.39696675    -0.27300
H396        H  0.39111401  0.75229377  0.37661967     0.08900
H397        H  0.28824274  0.68162355  0.34152888     0.27300
H398        H  0.34912513  0.77996031  0.24871521     0.22100
H399        H  0.41062615  0.84793469  0.38297866     0.27400
H400        H  0.42704354  0.74091442  0.31439467     0.16200
C401        C  0.09537929  0.19681503  0.16412715    -0.11000
C402        C  0.10807547  0.21589267  0.18903368     0.15500
C403        C  0.12229086  0.19970949  0.21431636     0.02400
C404        C  0.12458058  0.16499100  0.21339302    -0.15400
C405        C  0.11337978  0.14610919  0.18752054    -0.10200
C406        C  0.09781879  0.16216896  0.16310634     0.09100
C407        C  0.11013081  0.25238819  0.18536135     0.10200
S408        S  0.14035612  0.22203115  0.24678750    -0.24500
H409        H  0.13678556  0.15286480  0.23200263     0.20400
S410        S  0.08132076  0.13998318  0.12955250    -0.30200
H411        H  0.08458311  0.20915585  0.14463556     0.10700
C412        C  0.13418781  0.26680354  0.16999773     0.03900
C413        C  0.13627315  0.30140487  0.16751703    -0.12500
C414        C  0.11491495  0.32214368  0.18028694    -0.08200
C415        C  0.09010818  0.30755941  0.19448080     0.07400
C416        C  0.08800802  0.27280356  0.19693297    -0.13300
S417        S  0.16270431  0.24109720  0.15424021    -0.30200
H418        H  0.15533186  0.31244684  0.15669516     0.11600
S419        S  0.06028964  0.33173571  0.20915194    -0.27300
H420        H  0.06918503  0.26159916  0.20812284     0.08900
H421        H  0.07589726  0.11014074  0.14563367     0.27300
H422        H  0.17982308  0.26700414  0.14171584     0.22100
H423        H  0.06258725  0.35648175  0.18598166     0.27400
H424        H  0.12329108  0.25062382  0.24584527     0.16200
C425        C  0.11264381  0.77562414  0.41772396    -0.11000
C426        C  0.13013255  0.76531065  0.44304501     0.15500
C427        C  0.14307598  0.78919622  0.46393190     0.02400
C428        C  0.13743434  0.82294926  0.45967452    -0.15400
C429        C  0.11967305  0.83352936  0.43439597    -0.10200
C430        C  0.10711652  0.80931639  0.41308804     0.09100
C431        C  0.13286164  0.72919190  0.44757883     0.10200
S432        S  0.16689825  0.77799784  0.49628707    -0.24500
H433        H  0.14727880  0.84109466  0.47607129     0.20400
S434        S  0.08304936  0.82018579  0.38056253    -0.30200
H435        H  0.10285078  0.75692923  0.40187652     0.10700
C436        C  0.11630905  0.71249306  0.47059130     0.03900
C437        C  0.11609354  0.67767085  0.47091629    -0.12500
C438        C  0.13113032  0.65932359  0.44789700    -0.08200
C439        C  0.14848801  0.67604906  0.42554383     0.07400
C440        C  0.14935191  0.71091533  0.42579185    -0.13300
S441        S  0.09332850  0.73532378  0.49753834    -0.30200
H442        H  0.10233104  0.66463882  0.48754490     0.11600
S443        S  0.16917007  0.65313907  0.39644899    -0.27300
H444        H  0.16191950  0.72409781  0.40820091     0.08900
H445        H  0.07383076  0.78770398  0.37182496     0.27300
H446        H  0.08097036  0.70755354  0.51260947     0.22100
H447        H  0.17977710  0.68087819  0.37989506     0.27400
H448        H  0.17857974  0.75008061  0.48075998     0.16200
C449        C  0.34658263  0.20656775  0.09772218    -0.11000
C450        C  0.35573706  0.22097210  0.06925128     0.15500
C451        C  0.36573984  0.20004154  0.04449588     0.02400
C452        C  0.36910204  0.16597336  0.04983446    -0.15400
C453        C  0.36160159  0.15184784  0.07907903    -0.10200
C454        C  0.34875863  0.17222998  0.10264781     0.09100
C455        C  0.35845424  0.25793406  0.06807298     0.10200
S456        S  0.37457251  0.21547540  0.00569316    -0.24500
H457        H  0.37834056  0.15057301  0.03123610     0.20400
S458        S  0.33477002  0.15494337  0.13898415    -0.30200
H459        H  0.33866176  0.22254324  0.11661059     0.10700
C460        C  0.33435916  0.27890705  0.07208904     0.03900
C461        C  0.33898694  0.31351136  0.07615469    -0.12500
C462        C  0.36724843  0.32745018  0.07584622    -0.08200
C463        C  0.39095096  0.30666757  0.06922168     0.07400
C464        C  0.38641535  0.27228196  0.06590200    -0.13300
S465        S  0.29782517  0.26156716  0.07215836    -0.30200
H466        H  0.32076076  0.32951430  0.08084226     0.11600
S467        S  0.42760501  0.32269228  0.06495650    -0.27300
H468        H  0.40499968  0.25645422  0.06237284     0.08900
H469        H  0.32168397  0.18406000  0.15051583     0.27300
H470        H  0.28342161  0.29211307  0.07089399     0.22100
H471        H  0.41946352  0.35307734  0.05162207     0.27400
H472        H  0.35476424  0.24176224  0.00659651     0.16200
N473        N  0.01142705  0.09072955  0.54690768    -0.36300
N474        N  0.06494879  0.05815865  0.50043025    -0.56800
N475        N  0.07835059  0.01816196  0.55049193    -0.36300
N476        N  0.03204980  0.04746589  0.59334742    -0.56800
C477        C  0.00381598  0.09018069  0.51581430     0.27300
C478        C  0.98662012  0.08986670  0.56385636     0.27300
C479        C  0.09590943  0.00449378  0.52785722     0.27300
C480        C  0.09028278  0.01270810  0.57944869     0.27300
C481        C  0.03603729  0.06518212  0.97477902     0.35900
C482        C  0.07507171  0.03543011  0.97488122     0.35900
C483        C  0.00682864  0.05581913  0.60801858     0.35900
C484        C  0.05008876  0.03402576  0.61513361     0.35900
C485        C  0.47288604  0.09511866  0.50862955    -0.21500
C486        C  0.46187226  0.09596406  0.53891062    -0.21500
C487        C  0.11822641  0.98804119  0.54280875    -0.21500
C488        C  0.11512849  0.99378610  0.57517024    -0.21500
C489        C  0.03915382  0.05289952  0.94406396    -0.22600
C490        C  0.06379243  0.03381847  0.94398199    -0.22600
C491        C  0.00812084  0.04584792  0.63928571    -0.22600
C492        C  0.03561586  0.03294089  0.64405605    -0.22600
C493        C  0.01445780  0.06435070  0.49689423    -0.18000
C494        C  0.98332587  0.07343846  0.59359876    -0.18000
C495        C  0.07971568  0.02449868  0.60957391    -0.17900
C496        C  0.09112769  0.01015621  0.99017986    -0.17900
H497        H  0.45971524  0.09223705  0.48716203     0.15000
H498        H  0.43879993  0.09519243  0.54339692     0.15000
H499        H  0.13582655  0.97492512  0.53153961     0.15000
H500        H  0.12941652  0.98439796  0.59347080     0.15000
H501        H  0.02220029  0.05132212  0.92592423     0.13200
H502        H  0.06869867  0.01645133  0.92501992     0.13200
H503        H  0.99153989  0.04890345  0.65713106     0.13200
H504        H  0.04346159  0.02306208  0.66626583     0.13200
H505        H  0.03252242  0.08613344  0.55464346     0.26500
H506        H  0.05873847  0.02986801  0.54693171     0.26500
N507        N  0.50676246  0.99080469  0.96233080    -0.36300
N508        N  0.45760178  0.01965443  0.51039740    -0.56800
N509        N  0.41519324  0.96746103  0.97127608    -0.36300
N510        N  0.46218207  0.94942921  0.92811352    -0.56800
C511        C  0.51542451  0.00045028  0.99169111     0.27300
C512        C  0.51677560  0.96000654  0.95814873     0.27300
C513        C  0.40058129  0.99245840  0.49218021     0.27300
C514        C  0.39936172  0.96108924  0.94444380     0.27300
C515        C  0.48386127  0.01987177  0.52458601     0.35900
C516        C  0.44045033  0.00058541  0.52843459     0.35900
C517        C  0.48712028  0.93852878  0.91461410     0.35900
C518        C  0.43952368  0.93755060  0.91027391     0.35900
C519        C  0.03047921  0.97308983  0.00940843    -0.21500
C520        C  0.03218760  0.94703349  0.98807434    -0.21500
C521        C  0.37081692  0.98788688  0.97938250    -0.21500
C522        C  0.37151717  0.97365172  0.94900577    -0.21500
C523        C  0.48360655  0.99978315  0.55113428    -0.22600
C524        C  0.45540244  0.98876618  0.55449086    -0.22600
C525        C  0.48067355  0.91967207  0.88770916    -0.22600
C526        C  0.45058759  0.91877553  0.88496976    -0.22600
C527        C  0.50837622  0.02750486  0.50707986    -0.18000
C528        C  0.51470062  0.94270474  0.92949319    -0.18000
C529        C  0.40935601  0.94390612  0.91648204    -0.18300
C530        C  0.41065798  0.99994195  0.52377497    -0.17900
H531        H  0.03803497  0.97335957  0.03389181     0.15000
H532        H  0.04191712  0.92321921  0.99248544     0.15000
H533        H  0.35660181  0.01356676  0.48961743     0.15000
H534        H  0.35354400  0.97329347  0.93212076     0.15000
H535        H  0.50199565  0.99295918  0.56579112     0.13200
H536        H  0.44702727  0.97310505  0.57310282     0.13200
H537        H  0.49585180  0.90670524  0.87263330     0.13200
H538        H  0.43860876  0.90476666  0.86679344     0.13200
H539        H  0.49445173  0.00442181  0.94619940     0.26500
H540        H  0.43622327  0.95945276  0.97607666     0.26500
In541      In  0.38766390  0.43045823  0.59899327     1.36900
C542        C  0.38906135  0.48110510  0.55733233     0.77900
O543        O  0.34125716  0.44042962  0.61382169    -0.60500
O544        O  0.37498359  0.44187049  0.64880722    -0.51400
C545        C  0.37087743  0.36747362  0.58781886     0.70600
O546        O  0.37113061  0.38874116  0.56594298    -0.46300
C547        C  0.44587762  0.43127615  0.61016431     0.75300
O548        O  0.39312742  0.45131151  0.54874301    -0.58200
O549        O  0.42876736  0.45011740  0.62484474    -0.48200
O550        O  0.38055515  0.48385169  0.58556162    -0.54600
C551        C  0.34804921  0.44455538  0.64290730     0.85500
O552        O  0.37833409  0.37875218  0.61492770    -0.56500
O553        O  0.43281669  0.40877504  0.59410749    -0.59800
In554      In  0.39296178  0.05880669  0.60193758     1.36900
C555        C  0.39574983  0.01827741  0.54996666     0.77900
O556        O  0.43278559  0.09228805  0.59843851    -0.60500
O557        O  0.44050720  0.04314371  0.61186846    -0.51400
C558        C  0.37255440  0.12044046  0.59932450     0.70600
O559        O  0.36886165  0.09938543  0.57674676    -0.46300
C560        C  0.35618482  0.03537538  0.64658248     0.75300
O561        O  0.38835611  0.04830941  0.54794514    -0.58200
O562        O  0.38237448  0.04367346  0.65287770    -0.48200
O563        O  0.39772497  0.00850183  0.57831420    -0.54600
C564        C  0.45143237  0.07024376  0.60237068     0.85500
O565        O  0.38552340  0.10907783  0.62334105    -0.56500
O566        O  0.34981849  0.03731908  0.61741599    -0.59800
N567        N  0.98227696  0.49061724  0.56912482    -0.36300
N568        N  0.02827273  0.45355400  0.60363953    -0.56800
N569        N  0.07482145  0.47644794  0.56268482    -0.36300
N570        N  0.03461794  0.52033585  0.52484384    -0.56800
C571        C  0.97431402  0.45856150  0.57134996     0.27300
C572        C  0.97294310  0.50031612  0.54043323     0.27300
C573        C  0.09062459  0.47161583  0.58960901     0.27300
C574        C  0.09145111  0.49387404  0.54188546     0.27300
C575        C  0.00331393  0.44046636  0.61580412     0.35900
C576        C  0.05087914  0.44470546  0.62243375     0.35900
C577        C  0.00883587  0.52169270  0.50968067     0.35900
C578        C  0.05170364  0.50238458  0.50575499     0.35900
C579        C  0.46018336  0.45038280  0.54483291    -0.21500
C580        C  0.46066222  0.47687246  0.52485974    -0.21500
C581        C  0.11805942  0.48642138  0.58552095    -0.21500
C582        C  0.11856470  0.50024783  0.55536691    -0.21500
C583        C  0.00967130  0.42322315  0.64299038    -0.22600
C584        C  0.03969590  0.42559737  0.64715199    -0.22600
C585        C  0.01205872  0.50137334  0.97905063    -0.22600
C586        C  0.04006564  0.49030649  0.97695730    -0.22600
C587        C  0.97613906  0.44137069  0.59947158    -0.18000
C588        C  0.98401141  0.52878891  0.52666992    -0.18000
C589        C  0.08151820  0.50204567  0.51088544    -0.17900
C590        C  0.08105994  0.45359836  0.61709228    -0.17900
H591        H  0.45197448  0.42557769  0.53908654     0.15000
H592        H  0.45375866  0.47653115  0.50014761     0.15000
H593        H  0.13591535  0.48768699  0.60254592     0.15000
H594        H  0.13663709  0.51347694  0.54476884     0.15000
H595        H  0.99458904  0.40911577  0.65731558     0.13200
H596        H  0.05154272  0.41340767  0.66585273     0.13200
H597        H  0.99426574  0.49518299  0.96278621     0.13200
H598        H  0.04905386  0.47549688  0.95782748     0.13200
H599        H  0.99386785  0.50505301  0.58608626     0.26500
H600        H  0.05421849  0.46651024  0.55728300     0.26500
N601        N  0.48369470  0.58607273  0.99275615    -0.36300
N602        N  0.42830623  0.56040313  0.53780081    -0.56800
N603        N  0.41543791  0.51552002  0.98203392    -0.36300
N604        N  0.46422544  0.54422580  0.94236926    -0.56800
C605        C  0.49005813  0.58454647  0.02411533     0.27300
C606        C  0.50910032  0.58608310  0.97688255     0.27300
C607        C  0.39778506  0.49952170  0.00314710     0.27300
C608        C  0.40637344  0.50695611  0.95223886     0.27300
C609        C  0.45112399  0.57028202  0.55627171     0.35900
C610        C  0.41287414  0.53761290  0.55378350     0.35900
C611        C  0.48962184  0.55459397  0.92910544     0.35900
C612        C  0.44649798  0.53198394  0.91889416     0.35900
C613        C  0.02304842  0.59622913  0.02462094    -0.21500
C614        C  0.03423274  0.59732620  0.99443158    -0.21500
C615        C  0.37839776  0.47900173  0.98633428    -0.21500
C616        C  0.38335897  0.48413305  0.95440041    -0.21500
C617        C  0.44613087  0.55963278  0.58690350    -0.22600
C618        C  0.42202984  0.53871512  0.58548051    -0.22600
C619        C  0.48881746  0.54697755  0.89689711    -0.22600
C620        C  0.46132874  0.53353557  0.89024876    -0.22600
C621        C  0.47891041  0.56601181  0.54368156    -0.18000
C622        C  0.51290961  0.57172368  0.94582474    -0.18000
C623        C  0.41710024  0.52030959  0.92309689    -0.17900
C624        C  0.39793773  0.51060850  0.53796377    -0.17900
H625        H  0.03606138  0.59373232  0.04609344     0.15000
H626        H  0.05729771  0.59732182  0.98983517     0.15000
H627        H  0.35654899  0.47693658  0.49702562     0.15000
H628        H  0.37149753  0.47199915  0.93490006     0.15000
H629        H  0.46178001  0.56048236  0.60640647     0.13200
H630        H  0.41602377  0.52238544  0.60451943     0.13200
H631        H  0.50572371  0.55192785  0.87979692     0.13200
H632        H  0.45368880  0.52504452  0.86701053     0.13200
H633        H  0.46280200  0.58175705  0.98366486     0.26500
H634        H  0.43305362  0.53123510  0.98683848     0.26500
In635      In  0.10247665  0.92882462  0.92863074     1.36900
C636        C  0.10062039  0.98093729  0.97023173     0.77900
O637        O  0.14893621  0.93608574  0.91199911    -0.60500
O638        O  0.11517783  0.93605180  0.87759121    -0.51400
C639        C  0.11547779  0.86695746  0.94329284     0.70600
O640        O  0.12427978  0.89155488  0.96025662    -0.46300
C641        C  0.04418797  0.92812855  0.92115077     0.75300
O642        O  0.09849671  0.95113454  0.97901997    -0.58200
O643        O  0.06058663  0.94699413  0.90526968    -0.48200
O644        O  0.10774209  0.98347082  0.94153689    -0.54600
C645        C  0.14230026  0.93863124  0.88293494     0.85500
O646        O  0.10087458  0.87422136  0.91883306    -0.56500
O647        O  0.05774056  0.90639571  0.93621990    -0.59800
In648      In  0.10314984  0.56026932  0.93664023     1.36900
C649        C  0.09974706  0.52005467  0.98699135     0.77900
O650        O  0.06359444  0.59317643  0.93352637    -0.60500
O651        O  0.05593106  0.54193066  0.92686677    -0.51400
C652        C  0.12539620  0.62152228  0.94451165     0.70600
O653        O  0.12410799  0.60110599  0.96708503    -0.46300
C654        C  0.13943404  0.53647271  0.89230299     0.75300
O655        O  0.10405494  0.55103518  0.99011248    -0.58200
O656        O  0.11294035  0.54209482  0.88637171    -0.48200
O657        O  0.10144662  0.50948322  0.95864721    -0.54600
C658        C  0.04490883  0.57002031  0.93173537     0.85500
O659        O  0.11650233  0.60982752  0.91798517    -0.56500
O660        O  0.14663184  0.54212998  0.92097386    -0.59800
N661        N  0.23378762  0.88190776  0.78770792    -0.36300
N662        N  0.18088590  0.91550526  0.74302770    -0.56800
N663        N  0.16464014  0.94957397  0.79767135    -0.36300
N664        N  0.21146366  0.91987825  0.83897986    -0.56800
C665        C  0.24211840  0.88483154  0.75721698     0.27300
C666        C  0.25816889  0.88136630  0.80592942     0.27300
C667        C  0.14750971  0.96508233  0.77574148     0.27300
C668        C  0.15333607  0.95479357  0.82691085     0.27300
C669        C  0.20423784  0.90706149  0.72586090     0.35900
C670        C  0.16584449  0.93776469  0.72642059     0.35900
C671        C  0.23688872  0.91082724  0.85314084     0.35900
C672        C  0.19355908  0.93156773  0.86179584     0.35900
C673        C  0.27133251  0.87766279  0.75522393    -0.21500
C674        C  0.28163161  0.87526542  0.78594730    -0.21500
C675        C  0.12594165  0.98193670  0.79158349    -0.21500
C676        C  0.12921270  0.97505076  0.82356102    -0.21500
C677        C  0.20031294  0.91802344  0.69516044    -0.22600
C678        C  0.17600573  0.93753552  0.69528194    -0.22600
C679        C  0.23580695  0.91832636  0.88528319    -0.22600
C680        C  0.20833453  0.93062400  0.89094623    -0.22600
C681        C  0.23153750  0.91173347  0.74038094    -0.18000
C682        C  0.26071848  0.89526831  0.83744184    -0.18000
C683        C  0.16410257  0.94226522  0.85662912    -0.17900
C684        C  0.15036390  0.96381034  0.74174906    -0.17900
H685        H  0.28498422  0.88147291  0.73471138     0.15000
H686        H  0.30456593  0.87547078  0.79185973     0.15000
H687        H  0.10897740  0.99671426  0.78109085     0.15000
H688        H  0.11573588  0.98493398  0.84229298     0.15000
H689        H  0.21657458  0.91824757  0.67671086     0.13200
H690        H  0.17051991  0.95353648  0.67586682     0.13200
H691        H  0.25265427  0.91428158  0.90296947     0.13200
H692        H  0.20091578  0.93896336  0.91397824     0.13200
H693        H  0.21260484  0.88630207  0.79484581     0.26500
H694        H  0.18380829  0.93711141  0.79360066     0.26500
N695        N  0.23511507  0.98496614  0.71632576    -0.36300
N696        N  0.28150513  0.02392541  0.68396207    -0.56800
N697        N  0.32810091  0.00060343  0.72477329    -0.36300
N698        N  0.28714857  0.95368866  0.76039905    -0.56800
C699        C  0.22737303  0.01686189  0.71500114     0.27300
C700        C  0.22559888  0.97387275  0.74432818     0.27300
C701        C  0.34407820  0.00741276  0.69869991     0.27300
C702        C  0.34466398  0.98323285  0.74554099     0.27300
C703        C  0.25672679  0.03720090  0.67189717     0.35900
C704        C  0.30415028  0.03389378  0.66590860     0.35900
C705        C  0.26139636  0.95190706  0.77499582     0.35900
C706        C  0.30461989  0.97192138  0.77993522     0.35900
C707        C  0.21278440  0.02631860  0.74228088    -0.21500
C708        C  0.21280202  0.99922198  0.76159255    -0.21500
C709        C  0.37173706  0.99429122  0.70352918    -0.21500
C710        C  0.37207130  0.97922441  0.73313982    -0.21500
C711        C  0.26328102  0.05582247  0.64563014    -0.22600
C712        C  0.29320898  0.05398925  0.64187210    -0.22600
C713        C  0.26228074  0.96994478  0.80343774    -0.22600
C714        C  0.29038097  0.98144767  0.80730559    -0.22600
C715        C  0.22960677  0.03535003  0.68764059    -0.18000
C716        C  0.23625136  0.94516263  0.75735894    -0.18000
C717        C  0.33436430  0.97294541  0.77557129    -0.17900
C718        C  0.33423109  0.02523991  0.67118293    -0.17900
H719        H  0.20402242  0.05045691  0.74803698     0.15000
H720        H  0.20504013  0.99842091  0.78577195     0.15000
H721        H  0.38987217  0.99489779  0.68737825     0.15000
H722        H  0.39022747  0.96677229  0.74409966     0.15000
H723        H  0.24842010  0.07049676  0.63173518     0.13200
H724        H  0.30530669  0.06728508  0.62406538     0.13200
H725        H  0.24431784  0.97503316  0.81909546     0.13200
H726        H  0.29924497  0.99566285  0.82739960     0.13200
H727        H  0.24654359  0.97146504  0.69920907     0.26500
H728        H  0.30722028  0.00876393  0.72960738     0.26500
In729      In  0.14204251  0.41749515  0.68297016     1.36900
C730        C  0.14626584  0.45817712  0.73424842     0.77900
O731        O  0.18101229  0.39110839  0.70065450    -0.60500
O732        O  0.18972397  0.42208132  0.66257697    -0.51400
C733        C  0.12238170  0.35465041  0.68255542     0.70600
O734        O  0.11953010  0.37393551  0.70632438    -0.46300
C735        C  0.10374311  0.44283365  0.64085824     0.75300
O736        O  0.13282624  0.43054389  0.73493898    -0.58200
O737        O  0.12953435  0.43545562  0.63353728    -0.48200
O738        O  0.15322271  0.46691416  0.70650608    -0.54600
C739        C  0.20028833  0.40196308  0.68243693     0.85500
O740        O  0.13325047  0.36834026  0.65853940    -0.56500
O741        O  0.09853968  0.43908397  0.66998182    -0.59800
In742      In  0.14194592  0.04432757  0.68125098     1.36900
C743        C  0.14191799  0.99313127  0.72209475     0.77900
O744        O  0.09573869  0.03300956  0.66486269    -0.60500
O745        O  0.12889268  0.03367044  0.63037548    -0.51400
C746        C  0.12517583  0.10655581  0.68972730     0.70600
O747        O  0.12211548  0.08525935  0.71138346    -0.46300
C748        C  0.20059571  0.04619543  0.67629340     0.75300
O749        O  0.14410887  0.02304377  0.73174224    -0.58200
O750        O  0.18457272  0.02752093  0.65875584    -0.48200
O751        O  0.13583835  0.99039420  0.69289135    -0.54600
C752        C  0.10197225  0.02977726  0.63579870     0.85500
O753        O  0.13705878  0.09587790  0.66476382    -0.56500
O754        O  0.18649451  0.06704196  0.69228020    -0.59800
N755        N  0.25320568  0.46323404  0.83770428    -0.36300
N756        N  0.21306613  0.51387696  0.86152509    -0.56800
N757        N  0.16749795  0.49993091  0.81426792    -0.36300
N758        N  0.20140604  0.44383791  0.78804746    -0.56800
C759        C  0.26635370  0.49344118  0.83728464     0.27300
C760        C  0.26139690  0.44787743  0.81068422     0.27300
C761        C  0.15076713  0.50727601  0.83964446     0.27300
C762        C  0.15064755  0.48441366  0.79151112     0.27300
C763        C  0.23857689  0.52699257  0.87317585     0.35900
C764        C  0.19116507  0.53113835  0.87455775     0.35900
C765        C  0.22552614  0.42916057  0.77717900     0.35900
C766        C  0.19099240  0.46177366  0.76369983     0.35900
C767        C  0.28125212  0.49813213  0.80940794    -0.21500
C768        C  0.27745586  0.46961406  0.79226184    -0.21500
C769        C  0.12235866  0.49628594  0.83240130    -0.21500
C770        C  0.12228810  0.48231779  0.80180359    -0.21500
C771        C  0.23319915  0.55286694  0.89412405    -0.22600
C772        C  0.20312634  0.55544263  0.89521658    -0.22600
C773        C  0.23147416  0.44061780  0.74693569    -0.22600
C774        C  0.20918567  0.46027917  0.73792194    -0.22600
C775        C  0.26583951  0.51694121  0.86165900    -0.18000
C776        C  0.24778817  0.41938530  0.79779441    -0.18000
C777        C  0.16228458  0.47204336  0.76267021    -0.17900
C778        C  0.16082236  0.52463231  0.86807227    -0.17900
H779        H  0.29197854  0.52054294  0.80133548     0.15000
H780        H  0.28401656  0.46617818  0.76799750     0.15000
H781        H  0.10351199  0.49747250  0.84748591     0.15000
H782        H  0.10386915  0.47089170  0.78925149     0.15000
H783        H  0.24912387  0.56882901  0.90631373     0.13200
H784        H  0.19162844  0.57421761  0.90856376     0.13200
H785        H  0.25158742  0.43856404  0.73428684     0.13200
H786        H  0.20711113  0.47282596  0.71545113     0.13200
H787        H  0.23980200  0.45353480  0.85533840     0.26500
H788        H  0.18931564  0.50659398  0.81128093     0.26500
N789        N  0.26412157  0.37738426  0.73309599    -0.36300
N790        N  0.31449872  0.40894619  0.77757127    -0.56800
N791        N  0.32741853  0.45152911  0.72813416    -0.36300
N792        N  0.28140093  0.42013397  0.68465174    -0.56800
C793        C  0.25714884  0.36927085  0.76304484     0.27300
C794        C  0.23991125  0.37312279  0.71435064     0.27300
C795        C  0.34522215  0.46550973  0.75115478     0.27300
C796        C  0.33785332  0.45988955  0.69938432     0.27300
C797        C  0.29648948  0.39179040  0.79661835     0.35900
C798        C  0.33187059  0.42894076  0.79598063     0.35900
C799        C  0.25471509  0.41294567  0.67193202     0.35900
C800        C  0.29712833  0.43748273  0.66361750     0.35900
C801        C  0.23031423  0.35326440  0.76244553    -0.21500
C802        C  0.22009900  0.35399712  0.73149074    -0.21500
C803        C  0.36627193  0.48486688  0.73673960    -0.21500
C804        C  0.36209239  0.48076021  0.70419826    -0.21500
C805        C  0.30564450  0.39706165  0.82785812    -0.22600
C806        C  0.32806937  0.42029400  0.82760301    -0.22600
C807        C  0.25311838  0.42673582  0.64194869    -0.22600
C808        C  0.28026710  0.44133653  0.63628394    -0.22600
C809        C  0.26654750  0.38975070  0.78887762    -0.18000
C810        C  0.23251067  0.39396767  0.68765094    -0.18000
C811        C  0.32651718  0.44885003  0.66895479    -0.17900
C812        C  0.34437001  0.45929267  0.78459268    -0.17900
H813        H  0.21779509  0.34572618  0.78285055     0.15000
H814        H  0.19896580  0.34436823  0.72396740     0.15000
H815        H  0.38381862  0.49890252  0.74838988     0.15000
H816        H  0.37523955  0.49236256  0.68613462     0.15000
H817        H  0.29401487  0.38956374  0.84889996     0.13200
H818        H  0.33741136  0.43168390  0.84887328     0.13200
H819        H  0.23488406  0.42539177  0.62540258     0.13200
H820        H  0.28638989  0.45434754  0.61498011     0.13200
H821        H  0.28319308  0.39025868  0.72861576     0.26500
H822        H  0.30867174  0.43760542  0.73131225     0.26500
In823      In  0.35262285  0.53679521  0.85381245     1.36900
C824        C  0.35159668  0.48745643  0.80797080     0.77900
O825        O  0.40041725  0.53136734  0.86855118    -0.60500
O826        O  0.36790235  0.52511098  0.90296839    -0.51400
C827        C  0.36207208  0.60141503  0.84354715     0.70600
O828        O  0.36841681  0.57930196  0.82311869    -0.46300
C829        C  0.29516581  0.53202243  0.86794693     0.75300
O830        O  0.34889814  0.51783444  0.80161205    -0.58200
O831        O  0.31457686  0.51541063  0.88154631    -0.48200
O832        O  0.35750075  0.48320699  0.83689249    -0.54600
C833        C  0.39478413  0.52500478  0.89718131     0.85500
O834        O  0.35276369  0.59007904  0.86936822    -0.56500
O835        O  0.30546787  0.55419274  0.85029127    -0.59800
In836      In  0.34986869  0.90953546  0.84746032     1.36900
C837        C  0.34934240  0.95255509  0.79950152     0.77900
O838        O  0.30927217  0.87646190  0.84852959    -0.60500
O839        O  0.30311736  0.92749043  0.85619338    -0.51400
C840        C  0.37054169  0.84910615  0.83769442     0.70600
O841        O  0.36639605  0.86908790  0.81522318    -0.46300
C842        C  0.38726746  0.93251395  0.89209042     0.75300
O843        O  0.35374236  0.92192481  0.79485591    -0.58200
O844        O  0.36181708  0.92243935  0.89871639    -0.48200
O845        O  0.34925440  0.96126287  0.82849141    -0.54600
C846        C  0.29128700  0.89953759  0.85010446     0.85500
O847        O  0.36571219  0.86088669  0.86512379    -0.56500
O848        O  0.39271857  0.93159629  0.86279214    -0.59800
C849        C  0.35024390  0.69475303  0.84854860    -0.11000
C850        C  0.37307693  0.70696787  0.83004303     0.15500
C851        C  0.39130445  0.68431090  0.81414424     0.02400
C852        C  0.38685661  0.64995691  0.81813255    -0.15400
C853        C  0.36477498  0.63772147  0.83791573    -0.10200
C854        C  0.34557132  0.66051623  0.85227798     0.09100
C855        C  0.37676906  0.74355164  0.82820731     0.10200
S856        S  0.42034061  0.69737455  0.78832805    -0.24500
H857        H  0.40121991  0.63269858  0.80635343     0.20400
S858        S  0.31406085  0.64649309  0.87409570    -0.30200
H859        H  0.33598876  0.71228362  0.86010435     0.10700
C860        C  0.36175704  0.76192660  0.80517433     0.03900
C861        C  0.36259651  0.79681431  0.80708056    -0.12500
C862        C  0.37725000  0.81367325  0.83226761    -0.08200
C863        C  0.39343451  0.79519271  0.85445178     0.07400
C864        C  0.39295649  0.76038575  0.85221307    -0.13300
S865        S  0.33950719  0.74095193  0.77502035    -0.30200
H866        H  0.34985262  0.81091299  0.79035376     0.11600
S867        S  0.41448348  0.81446113  0.88651560    -0.27300
H868        H  0.40452764  0.74623434  0.86991856     0.08900
H869        H  0.30012258  0.67734249  0.87577335     0.27300
H870        H  0.33132964  0.76963401  0.75865222     0.22100
H871        H  0.42103414  0.84383948  0.87014977     0.27400
H872        H  0.42432374  0.72985004  0.80059907     0.16200
C873        C  0.10249875  0.19269132  0.66688593    -0.11000
C874        C  0.11273624  0.21164874  0.69315559     0.15500
C875        C  0.12302448  0.19515179  0.72048776     0.02400
C876        C  0.12437184  0.16024795  0.72008765    -0.15400
C877        C  0.11634469  0.14160440  0.69270042    -0.10200
C878        C  0.10400789  0.15801201  0.66643893     0.09100
C879        C  0.11430960  0.24834048  0.68995037     0.10200
S880        S  0.13626863  0.21698689  0.75583255    -0.24500
H881        H  0.13372214  0.14781141  0.74038796     0.20400
S882        S  0.09020610  0.13603503  0.63140476    -0.30200
H883        H  0.09404733  0.20514553  0.64612931     0.10700
C884        C  0.13515469  0.26314294  0.67001723     0.03900
C885        C  0.13596797  0.29775991  0.66681326    -0.12500
C886        C  0.11671902  0.31824885  0.68348708    -0.08200
C887        C  0.09527333  0.30329959  0.70278414     0.07400
C888        C  0.09442441  0.26855320  0.70597803    -0.13300
S889        S  0.16175693  0.23806681  0.64980337    -0.30200
H890        H  0.15259317  0.30907053  0.65225021     0.11600
S891        S  0.06790174  0.32696003  0.72297623    -0.27300
H892        H  0.07802778  0.25714948  0.72081082     0.08900
H893        H  0.08143641  0.10714743  0.64744706     0.27300
H894        H  0.17699582  0.26436568  0.63540472     0.22100
H895        H  0.06589871  0.35156733  0.69966236     0.27400
H896        H  0.14549290  0.24631882  0.74098926     0.16200
C897        C  0.10428394  0.77585899  0.96139361    -0.11000
C898        C  0.13258291  0.76378117  0.95764247     0.15500
C899        C  0.15569733  0.78657401  0.95200089     0.02400
C900        C  0.14979695  0.82043663  0.94857521    -0.15400
C901        C  0.12136357  0.83213445  0.95109059    -0.10200
C902        C  0.09851069  0.80982223  0.95845554     0.09100
C903        C  0.13637774  0.72713408  0.95646650     0.10200
S904        S  0.19303962  0.77405467  0.94848561    -0.24500
H905        H  0.16738951  0.83765694  0.94309747     0.20400
S906        S  0.06197569  0.82458332  0.96410582    -0.30200
H907        H  0.08654795  0.75842615  0.96563065     0.10700
C908        C  0.13026600  0.70710834  0.98286848     0.03900
C909        C  0.12898742  0.67233913  0.97896811    -0.12500
C910        C  0.13385961  0.65712526  0.94917003    -0.08200
C911        C  0.14298194  0.67712191  0.92361245     0.07400
C912        C  0.14374711  0.71189904  0.92744379    -0.13300
S913        S  0.12341393  0.72586316  0.02135565    -0.30200
H914        H  0.12250224  0.65712038  0.99877622     0.11600
S915        S  0.15384424  0.65871062  0.88611554    -0.27300
H916        H  0.14911657  0.72742984  0.90746508     0.08900
H917        H  0.05043352  0.79491001  0.97650329     0.27300
H918        H  0.12359926  0.69617092  0.03860221     0.22100
H919        H  0.16059253  0.68861052  0.87068910     0.27400
H920        H  0.19038772  0.74508190  0.96656651     0.16200
C921        C  0.36375092  0.21316867  0.61733867    -0.11000
C922        C  0.35573439  0.22506301  0.58730657     0.15500
C923        C  0.35104001  0.20188651  0.56197868     0.02400
C924        C  0.35552295  0.16792830  0.56698691    -0.15400
C925        C  0.36432171  0.15606802  0.59686793    -0.10200
C926        C  0.36743819  0.17914340  0.62269215     0.09100
C927        C  0.35512457  0.26186601  0.58315309     0.10200
S928        S  0.33991693  0.21389194  0.52254419    -0.24500
H929        H  0.35273816  0.15070318  0.54701362     0.20400
S930        S  0.37631135  0.16627001  0.66268216    -0.30200
H931        H  0.36785052  0.23092183  0.63661987     0.10700
C932        C  0.33852603  0.28248538  0.60329881     0.03900
C933        C  0.34314065  0.31711009  0.60317812    -0.12500
C934        C  0.36346761  0.33181402  0.58282637    -0.08200
C935        C  0.37861473  0.31141265  0.56115692     0.07400
C936        C  0.37435460  0.27678042  0.56161055    -0.13300
S937        S  0.31156875  0.26478719  0.62940461    -0.30200
H938        H  0.33130934  0.33286387  0.61949999     0.11600
S939        S  0.40531188  0.32770214  0.53413954    -0.27300
H940        H  0.38741630  0.26123108  0.54628772     0.08900
H941        H  0.37317005  0.19739189  0.67797176     0.27300
H942        H  0.30464743  0.29453342  0.64549229     0.22100
H943        H  0.41747434  0.35141958  0.55564398     0.27400
H944        H  0.32529036  0.24273607  0.53210191     0.16200
N945        N  0.50482275  0.09061991  0.04106688    -0.36300
N946        N  0.55841348  0.06013137  0.99330052    -0.56800
N947        N  0.57566229  0.02399732  0.04537560    -0.36300
N948        N  0.52865470  0.05085484  0.08889748    -0.56800
C949        C  0.49627083  0.08826138  0.01028298     0.27300
C950        C  0.48062035  0.08941718  0.05899245     0.27300
C951        C  0.59294943  0.01004267  0.02257308     0.27300
C952        C  0.58737362  0.01769786  0.07431838     0.27300
C953        C  0.54018041  0.06752544  0.47948406     0.35900
C954        C  0.57800998  0.03604771  0.47789208     0.35900
C955        C  0.50329972  0.05819185  0.10377253     0.35900
C956        C  0.54705518  0.03774879  0.11051595     0.35900
C957        C  0.96853419  0.09306281  0.00292496    -0.21500
C958        C  0.95759201  0.09579933  0.03317269    -0.21500
C959        C  0.61505304  0.99314081  0.03747547    -0.21500
C960        C  0.61191361  0.99837973  0.06984831    -0.21500
C961        C  0.54372715  0.05826022  0.44793478    -0.22600
C962        C  0.56759202  0.03804562  0.44675340    -0.22600
C963        C  0.50500312  0.04814459  0.13498819    -0.22600
C964        C  0.53273970  0.03596093  0.13949907    -0.22600
C965        C  0.50752360  0.06234529  0.99191685    -0.18000
C966        C  0.47884833  0.07403354  0.08940449    -0.18000
C967        C  0.57671436  0.02862648  0.10471784    -0.17900
C968        C  0.59304381  0.00890453  0.49122670    -0.17900
H969        H  0.95534723  0.08802150  0.98177462     0.15000
H970        H  0.93456548  0.09448363  0.03793886     0.15000
H971        H  0.63225085  0.97936300  0.02618925     0.15000
H972        H  0.62577629  0.98804070  0.08803440     0.15000
H973        H  0.52727667  0.05936714  0.42931236     0.13200
H974        H  0.57249416  0.02254955  0.42637218     0.13200
H975        H  0.48834879  0.05029346  0.15287510     0.13200
H976        H  0.54076193  0.02585714  0.16153236     0.13200
H977        H  0.52627106  0.08726452  0.04820799     0.26500
H978        H  0.55625094  0.03613936  0.04211620     0.26500
N979        N  0.01035001  0.99376046  0.46406071    -0.36300
N980        N  0.95562738  0.01768168  0.00987030    -0.56800
N981        N  0.91670407  0.97722355  0.47216394    -0.36300
N982        N  0.96283529  0.95617753  0.42896360    -0.56800
C983        C  0.01879176  0.00173413  0.49393831     0.27300
C984        C  0.01764532  0.96193946  0.45951247     0.27300
C985        C  0.89937280  0.98816839  0.99229347     0.27300
C986        C  0.90035178  0.97092733  0.44562216     0.27300
C987        C  0.98162985  0.01979592  0.02456884     0.35900
C988        C  0.93858959  0.99953627  0.02883335     0.35900
C989        C  0.98715792  0.94369534  0.41540257     0.35900
C990        C  0.93971136  0.94635225  0.41076261     0.35900
C991        C  0.53040192  0.97233839  0.50567819    -0.21500
C992        C  0.53096942  0.94767815  0.48286057    -0.21500
C993        C  0.87228557  0.99676777  0.48171966    -0.21500
C994        C  0.87247470  0.98295784  0.45114442    -0.21500
C995        C  0.98138747  0.00183775  0.05248592    -0.22600
C996        C  0.95334270  0.99033773  0.05606264    -0.22600
C997        C  0.97986516  0.92583157  0.38813122    -0.22600
C998        C  0.94985466  0.92721597  0.38521266    -0.22600
C999        C  0.00625134  0.02698607  0.00709848    -0.18000
C1000       C  0.01472393  0.94536462  0.43057656    -0.18000
C1001       C  0.90987194  0.95436401  0.41702552    -0.18300
C1002       C  0.90888443  0.99761840  0.02354017    -0.17900
H1003       H  0.53755535  0.97027631  0.53016258     0.15000
H1004       H  0.53915599  0.92283866  0.48582114     0.15000
H1005       H  0.85422686  0.00579391  0.98922131     0.15000
H1006       H  0.85406122  0.98236798  0.43484983     0.15000
H1007       H  0.99970069  0.99668649  0.06793724     0.13200
H1008       H  0.94497558  0.97604107  0.07565295     0.13200
H1009       H  0.99434410  0.91189711  0.37300341     0.13200
H1010       H  0.93720381  0.91425469  0.36686109     0.13200
H1011       H  0.99959969  0.00897877  0.44794954     0.26500
H1012       H  0.93795993  0.96967699  0.47631631     0.26500
In1013     In  0.88852109  0.43369630  0.10052359     1.36900
C1014       C  0.89028248  0.48235945  0.05701677     0.77900
O1015       O  0.84248603  0.44280623  0.11632053    -0.60500
O1016       O  0.87634941  0.44704667  0.15073521    -0.51400
C1017       C  0.87321538  0.37060368  0.08847228     0.70600
O1018       O  0.86815080  0.39333327  0.06877995    -0.46300
C1019       C  0.94682418  0.43385845  0.10969661     0.75300
O1020       O  0.89467717  0.45231797  0.04976525    -0.58200
O1021       O  0.93060970  0.45435664  0.12364845    -0.48200
O1022       O  0.88118619  0.48641675  0.08489499    -0.54600
C1023       C  0.84930939  0.44890447  0.14504579     0.85500
O1024       O  0.88481749  0.38043134  0.11440221    -0.56500
O1025       O  0.93290605  0.41075232  0.09546829    -0.59800
In1026     In  0.88950083  0.06149748  0.09652895     1.36900
C1027       C  0.89310879  0.01739954  0.04788193     0.77900
O1028       O  0.92915836  0.09558245  0.09387468    -0.60500
O1029       O  0.93715510  0.04633220  0.10653721    -0.51400
C1030       C  0.86822130  0.12267586  0.09080395     0.70600
O1031       O  0.86726444  0.10156686  0.06798797    -0.46300
C1032       C  0.85257707  0.03857434  0.14095356     0.75300
O1033       O  0.88540700  0.04704854  0.04348746    -0.58200
O1034       O  0.87825513  0.04856191  0.14771424    -0.48200
O1035       O  0.89471174  0.00975678  0.07685053    -0.54600
C1036       C  0.94795221  0.07368561  0.09763620     0.85500
O1037       O  0.87889221  0.11166016  0.11628887    -0.56500
O1038       O  0.84680331  0.03889983  0.11155657    -0.59800
N1039       N  0.47908116  0.48879829  0.07052910    -0.36300
N1040       N  0.52546991  0.45510461  0.10744820    -0.56800
N1041       N  0.57229959  0.47602001  0.06501422    -0.36300
N1042       N  0.53270794  0.51688698  0.02481916    -0.56800
C1043       C  0.47207330  0.45666782  0.07413235     0.27300
C1044       C  0.47125439  0.49601910  0.04063260     0.27300
C1045       C  0.58780028  0.47265455  0.09239297     0.27300
C1046       C  0.58930391  0.49245312  0.04377329     0.27300
C1047       C  0.50072470  0.44158504  0.11975076     0.35900
C1048       C  0.54822603  0.44662312  0.12616766     0.35900
C1049       C  0.50702101  0.51696649  0.00940633     0.35900
C1050       C  0.55049846  0.49932333  0.00620432     0.35900
C1051       C  0.96112189  0.44743318  0.04277198    -0.21500
C1052       C  0.96197578  0.47283269  0.02140068    -0.21500
C1053       C  0.61520198  0.48748299  0.08813009    -0.21500
C1054       C  0.61614968  0.49963072  0.05743176    -0.21500
C1055       C  0.50733025  0.42470758  0.14706709    -0.22600
C1056       C  0.53732751  0.42758817  0.15110575    -0.22600
C1057       C  0.50877154  0.50776930  0.48305879    -0.22600
C1058       C  0.53612701  0.49531733  0.47976178    -0.22600
C1059       C  0.47376048  0.44100881  0.10301520    -0.18000
C1060       C  0.48190854  0.52409963  0.02595785    -0.18000
C1061       C  0.58016151  0.49937947  0.01224201    -0.17900
C1062       C  0.57832180  0.45549665  0.12037289    -0.17900
H1063       H  0.95189354  0.42276482  0.03857182     0.15000
H1064       H  0.95446027  0.47158998  0.99689540     0.15000
H1065       H  0.63280829  0.48994390  0.10536834     0.15000
H1066       H  0.63435229  0.51236262  0.04657236     0.15000
H1067       H  0.49249571  0.41021874  0.16136113     0.13200
H1068       H  0.54936217  0.41550864  0.16972558     0.13200
H1069       H  0.49054230  0.50337279  0.46691983     0.13200
H1070       H  0.54409173  0.48117113  0.45963199     0.13200
H1071       H  0.48937353  0.50470349  0.08727771     0.26500
H1072       H  0.55173525  0.46580026  0.05985594     0.26500
N1073       N  0.98542223  0.59201017  0.49552530    -0.36300
N1074       N  0.93158676  0.55930815  0.03574554    -0.56800
N1075       N  0.91467142  0.52587061  0.48364985    -0.36300
N1076       N  0.96328449  0.55369731  0.44370842    -0.56800
C1077       C  0.99287744  0.58918488  0.52648109     0.27300
C1078       C  0.01023559  0.59231768  0.47861028     0.27300
C1079       C  0.89710133  0.50966109  0.50470304     0.27300
C1080       C  0.90409341  0.51972697  0.45387567     0.27300
C1081       C  0.95557138  0.56739236  0.05306530     0.35900
C1082       C  0.91607153  0.53708449  0.05221937     0.35900
C1083       C  0.98859541  0.56395297  0.43020344     0.35900
C1084       C  0.94444504  0.54414181  0.42018003     0.35900
C1085       C  0.52008833  0.59961815  0.52965728    -0.21500
C1086       C  0.53122399  0.60089120  0.49943196    -0.21500
C1087       C  0.87612960  0.49143559  0.48779288    -0.21500
C1088       C  0.88011266  0.49821136  0.45599587    -0.21500
C1089       C  0.95166948  0.55644889  0.08377938    -0.22600
C1090       C  0.92666723  0.53704626  0.08340960    -0.22600
C1091       C  0.98662373  0.55897937  0.39765065    -0.22600
C1092       C  0.95856793  0.54729960  0.39116621    -0.22600
C1093       C  0.98234852  0.56207043  0.03864711    -0.18000
C1094       C  0.01279575  0.57908084  0.44695966    -0.18000
C1095       C  0.91478210  0.53337537  0.42476770    -0.17900
C1096       C  0.89993482  0.51079685  0.03688051    -0.17900
H1097       H  0.53313734  0.59669184  0.55104395     0.15000
H1098       H  0.55426593  0.60063637  0.49467135     0.15000
H1099       H  0.85908065  0.47514079  0.99685378     0.15000
H1100       H  0.86707463  0.48772515  0.43654304     0.15000
H1101       H  0.96825374  0.55593574  0.10230889     0.13200
H1102       H  0.92100227  0.52044047  0.10236333     0.13200
H1103       H  0.00314290  0.56466563  0.38030511     0.13200
H1104       H  0.95023726  0.54106036  0.36762658     0.13200
H1105       H  0.96418464  0.58829500  0.48723489     0.26500
H1106       H  0.93331430  0.53994065  0.48860527     0.26500
In1107     In  0.60170662  0.93223813  0.42425656     1.36900
C1108       C  0.60147978  0.98085650  0.46939946     0.77900
O1109       O  0.64861694  0.94058500  0.40944614    -0.60500
O1110       O  0.61550756  0.94263468  0.37432799    -0.51400
C1111       C  0.61343121  0.86922086  0.43502792     0.70600
O1112       O  0.61984086  0.89202997  0.45520812    -0.46300
C1113       C  0.54335225  0.93351323  0.41510484     0.75300
O1114       O  0.59805510  0.95055528  0.47605721    -0.58200
O1115       O  0.56060760  0.95376329  0.40204841    -0.48200
O1116       O  0.60875494  0.98530945  0.44099021    -0.54600
C1117       C  0.64250565  0.94495438  0.38047891     0.85500
O1118       O  0.60253110  0.87926494  0.40931213    -0.56500
O1119       O  0.55613250  0.90980639  0.42807795    -0.59800
In1120     In  0.59968100  0.56375482  0.43992367     1.36900
C1121       C  0.59681348  0.52117788  0.48821854     0.77900
O1122       O  0.56055705  0.59768568  0.43805210    -0.60500
O1123       O  0.55195688  0.54685776  0.43010700    -0.51400
C1124       C  0.62150339  0.62446416  0.44915162     0.70600
O1125       O  0.61652781  0.60525959  0.47210526    -0.46300
C1126       C  0.63689251  0.54175066  0.39571160     0.75300
O1127       O  0.60447119  0.55125935  0.49260200    -0.58200
O1128       O  0.61081047  0.54900466  0.38918087    -0.48200
O1129       O  0.59518333  0.51232433  0.45927758    -0.54600
C1130       C  0.54143890  0.57505208  0.43587865     0.85500
O1131       O  0.61643669  0.61189413  0.42187609    -0.56500
O1132       O  0.64330866  0.54488208  0.42489538    -0.59800
N1133       N  0.73375991  0.88995916  0.28669709    -0.36300
N1134       N  0.67826456  0.92102170  0.24197357    -0.56800
N1135       N  0.66442611  0.95711468  0.29607623    -0.36300
N1136       N  0.71240463  0.92929317  0.33717622    -0.56800
C1137       C  0.74085548  0.89239946  0.25576698     0.27300
C1138       C  0.75877965  0.89106615  0.30393328     0.27300
C1139       C  0.64696776  0.97252993  0.27439286     0.27300
C1140       C  0.65402429  0.96331526  0.32550953     0.27300
C1141       C  0.70154563  0.91250722  0.22474527     0.35900
C1142       C  0.66306470  0.94304795  0.22524488     0.35900
C1143       C  0.73791720  0.92049772  0.35125650     0.35900
C1144       C  0.69422637  0.94001276  0.36011306     0.35900
C1145       C  0.77023419  0.88656279  0.25275279    -0.21500
C1146       C  0.78175041  0.88572731  0.28308202    -0.21500
C1147       C  0.62634573  0.99054594  0.29060497    -0.21500
C1148       C  0.63033987  0.98424732  0.32260868    -0.21500
C1149       C  0.69704426  0.92266732  0.19382543    -0.22600
C1150       C  0.67273260  0.94222821  0.19396709    -0.22600
C1151       C  0.73666744  0.92744742  0.38351718    -0.22600
C1152       C  0.70889262  0.93890051  0.38929884    -0.22600
C1153       C  0.72893650  0.91849559  0.23879517    -0.18000
C1154       C  0.76179512  0.90540488  0.33525617    -0.18000
C1155       C  0.66468626  0.95019028  0.35492078    -0.17900
C1156       C  0.64839571  0.96980739  0.24034302    -0.17900
H1157       H  0.78298708  0.89048356  0.23157854     0.15000
H1158       H  0.80486880  0.88753831  0.28788001     0.15000
H1159       H  0.60935823  0.00546976  0.28036037     0.15000
H1160       H  0.61749349  0.99460183  0.34166193     0.15000
H1161       H  0.71307517  0.92264724  0.17513787     0.13200
H1162       H  0.66708777  0.95826077  0.17460124     0.13200
H1163       H  0.75353659  0.92342030  0.40118404     0.13200
H1164       H  0.70109658  0.94656923  0.41239679     0.13200
H1165       H  0.71266619  0.89329888  0.29465243     0.26500
H1166       H  0.68295833  0.94358481  0.29178673     0.26500
N1167       N  0.73091365  0.98981085  0.21172947    -0.36300
N1168       N  0.77784494  0.02738472  0.17793443    -0.56800
N1169       N  0.82444951  0.00691024  0.22022222    -0.36300
N1170       N  0.78405024  0.96257245  0.25757960    -0.56800
C1171       C  0.72421237  0.02191929  0.20929058     0.27300
C1172       C  0.72233150  0.98063869  0.24069970     0.27300
C1173       C  0.84042306  0.01254990  0.19386967     0.27300
C1174       C  0.84128230  0.99124455  0.24203683     0.27300
C1175       C  0.75293437  0.03922983  0.16486134     0.35900
C1176       C  0.80028327  0.03582124  0.15900522     0.35900
C1177       C  0.75830986  0.96038726  0.27219811     0.35900
C1178       C  0.80136513  0.98111746  0.27705540     0.35900
C1179       C  0.71103541  0.03351023  0.23665730    -0.21500
C1180       C  0.71090587  0.00744418  0.25723204    -0.21500
C1181       C  0.86828846  0.00035993  0.19952468    -0.21500
C1182       C  0.86879741  0.98713017  0.22994235    -0.21500
C1183       C  0.75909167  0.05509885  0.13690740    -0.22600
C1184       C  0.78899692  0.05320404  0.13318199    -0.22600
C1185       C  0.75892953  0.97877428  0.30042359    -0.22600
C1186       C  0.78688996  0.99074559  0.30426034    -0.22600
C1187       C  0.72609617  0.03873706  0.18102362    -0.18000
C1188       C  0.73322465  0.95257463  0.25474208    -0.18000
C1189       C  0.83118092  0.98258257  0.27268114    -0.17900
C1190       C  0.83047629  0.02855793  0.16533556    -0.17900
H1191       H  0.70329903  0.05832665  0.24152339     0.15000
H1192       H  0.70400054  0.00825876  0.28175071     0.15000
H1193       H  0.88645325  0.00041220  0.18339711     0.15000
H1194       H  0.88716014  0.97581471  0.24164977     0.15000
H1195       H  0.74398812  0.06806201  0.12176062     0.13200
H1196       H  0.80074466  0.06476506  0.11407721     0.13200
H1197       H  0.74088810  0.98382219  0.31596810     0.13200
H1198       H  0.79545202  0.00541645  0.32420491     0.13200
H1199       H  0.74145710  0.97511109  0.19481001     0.26500
H1200       H  0.80342309  0.01491548  0.22451232     0.26500
In1201     In  0.64078546  0.42150487  0.18553527     1.36900
C1202       C  0.64264454  0.45783906  0.24028392     0.77900
O1203       O  0.68050504  0.38875747  0.18383919    -0.60500
O1204       O  0.68872947  0.43908986  0.17581090    -0.51400
C1205       C  0.62135923  0.35893736  0.18539758     0.70600
O1206       O  0.62040325  0.37768364  0.20985500    -0.46300
C1207       C  0.60132192  0.44536869  0.14398267     0.75300
O1208       O  0.63671323  0.42702179  0.23946032    -0.58200
O1209       O  0.62737738  0.43945220  0.13659783    -0.48200
O1210       O  0.64412073  0.47051625  0.21302906    -0.54600
C1211       C  0.69968879  0.41101449  0.18109604     0.85500
O1212       O  0.63048061  0.37318171  0.16078123    -0.56500
O1213       O  0.59632136  0.44088831  0.17299155    -0.59800
In1214     In  0.63874129  0.04757715  0.17685422     1.36900
C1215       C  0.63946812  0.99838549  0.22000880     0.77900
O1216       O  0.59246456  0.03727831  0.16013898    -0.60500
O1217       O  0.62591224  0.03591607  0.12609476    -0.51400
C1218       C  0.62298153  0.10999739  0.18647867     0.70600
O1219       O  0.62052452  0.08856673  0.20806435    -0.46300
C1220       C  0.69700662  0.04874279  0.16950364     0.75300
O1221       O  0.64388027  0.02852659  0.22783044    -0.58200
O1222       O  0.68045094  0.02846344  0.15439321    -0.48200
O1223       O  0.63078780  0.99448359  0.19163692    -0.54600
C1224       C  0.59886542  0.03321518  0.13119589     0.85500
O1225       O  0.63316992  0.09925094  0.16064382    -0.56500
O1226       O  0.68349948  0.07123773  0.18394393    -0.59800
N1227       N  0.75223269  0.47542745  0.33709647    -0.36300
N1228       N  0.71106097  0.52413993  0.36170390    -0.56800
N1229       N  0.66413704  0.50412839  0.31812441    -0.36300
N1230       N  0.70020858  0.44963799  0.29122918    -0.56800
C1231       C  0.76469963  0.50590859  0.33598797     0.27300
C1232       C  0.76196998  0.45886416  0.31143779     0.27300
C1233       C  0.64808801  0.51197982  0.34384407     0.27300
C1234       C  0.64707931  0.48671280  0.29678159     0.27300
C1235       C  0.73648746  0.53751469  0.37339712     0.35900
C1236       C  0.68882954  0.53852733  0.37714234     0.35900
C1237       C  0.72548624  0.43924871  0.27931006     0.35900
C1238       C  0.68759807  0.46689814  0.26778309     0.35900
C1239       C  0.78087005  0.50951419  0.30877952    -0.21500
C1240       C  0.77839537  0.48001310  0.29282961    -0.21500
C1241       C  0.61985029  0.49940187  0.33826193    -0.21500
C1242       C  0.61920196  0.48386112  0.30833827    -0.21500
C1243       C  0.73073827  0.56087181  0.39680905    -0.22600
C1244       C  0.70057013  0.56144108  0.39938712    -0.22600
C1245       C  0.72979239  0.45273510  0.24948154    -0.22600
C1246       C  0.70521637  0.46929313  0.24164767    -0.22600
C1247       C  0.76380452  0.52956034  0.36023616    -0.18000
C1248       C  0.74851719  0.43019871  0.29904397    -0.18000
C1249       C  0.65824800  0.47367914  0.26798780    -0.17900
C1250       C  0.65846544  0.53060260  0.37142559    -0.17900
H1251       H  0.79181990  0.53166401  0.30041058     0.15000
H1252       H  0.78576160  0.47553452  0.26899267     0.15000
H1253       H  0.60153981  0.50048915  0.35413536     0.15000
H1254       H  0.60078919  0.47101801  0.29708543     0.15000
H1255       H  0.74642288  0.57624379  0.41003006     0.13200
H1256       H  0.68881153  0.57777625  0.41517642     0.13200
H1257       H  0.74959805  0.45290626  0.23602635     0.13200
H1258       H  0.70107279  0.48258580  0.21993477     0.13200
H1259       H  0.73839715  0.46611739  0.35452452     0.26500
H1260       H  0.68555500  0.51160656  0.31391702     0.26500
N1261       N  0.76280599  0.38762573  0.23466323    -0.36300
N1262       N  0.81532869  0.41775054  0.27973565    -0.56800
N1263       N  0.82848146  0.45897234  0.22987920    -0.36300
N1264       N  0.77973374  0.43336005  0.18798134    -0.56800
C1265       C  0.75664578  0.37964340  0.26491356     0.27300
C1266       C  0.73762126  0.38584929  0.21724225     0.27300
C1267       C  0.84589088  0.47387625  0.25276982     0.27300
C1268       C  0.83879369  0.46688893  0.20097190     0.27300
C1269       C  0.79666157  0.40133396  0.29854929     0.35900
C1270       C  0.83232242  0.43818937  0.29813842     0.35900
C1271       C  0.75397074  0.42393659  0.17416537     0.35900
C1272       C  0.79766961  0.44489268  0.16537660     0.35900
C1273       C  0.72881170  0.36607947  0.26550297    -0.21500
C1274       C  0.71680171  0.36967620  0.23565070    -0.21500
C1275       C  0.86672300  0.49324885  0.23798527    -0.21500
C1276       C  0.86277757  0.48819233  0.20543816    -0.21500
C1277       C  0.80529850  0.40708536  0.32991094    -0.22600
C1278       C  0.82793869  0.43008453  0.32979889    -0.22600
C1279       C  0.75465269  0.43147658  0.14221761    -0.22600
C1280       C  0.78251708  0.44383923  0.13641073    -0.22600
C1281       C  0.76686096  0.40035720  0.29018969    -0.18000
C1282       C  0.73147116  0.40532814  0.18946446    -0.18000
C1283       C  0.82758459  0.45477751  0.17080803    -0.17900
C1284       C  0.84463960  0.46858429  0.28643301    -0.17900
H1285       H  0.71659411  0.36011624  0.28660153     0.15000
H1286       H  0.69406866  0.36474415  0.23062584     0.15000
H1287       H  0.88395726  0.50797189  0.24942050     0.15000
H1288       H  0.87582283  0.49951012  0.18712731     0.15000
H1289       H  0.79315579  0.40019875  0.35080359     0.13200
H1290       H  0.83701708  0.44173840  0.35107642     0.13200
H1291       H  0.73768270  0.42642495  0.12459470     0.13200
H1292       H  0.79022252  0.45164687  0.11346227     0.13200
H1293       H  0.78263118  0.39816719  0.22882337     0.26500
H1294       H  0.81006865  0.44459443  0.23314817     0.26500
In1295     In  0.85107056  0.54865965  0.35415533     1.36900
C1296       C  0.85082981  0.49760278  0.30943713     0.77900
O1297       O  0.89826496  0.54243593  0.36990010    -0.60500
O1298       O  0.86564955  0.53987570  0.40447431    -0.51400
C1299       C  0.86191651  0.61343692  0.34336173     0.70600
O1300       O  0.87169253  0.59062704  0.32553031    -0.46300
C1301       C  0.79322761  0.54431753  0.36712571     0.75300
O1302       O  0.84915009  0.52788716  0.30207931    -0.58200
O1303       O  0.81230743  0.52760584  0.38128097    -0.48200
O1304       O  0.85480822  0.49427786  0.33886206    -0.54600
C1305       C  0.89249448  0.53816844  0.39880315     0.85500
O1306       O  0.84758680  0.60281274  0.36658760    -0.56500
O1307       O  0.80406980  0.56609189  0.34933420    -0.59800
In1308     In  0.85077391  0.92193104  0.34630481     1.36900
C1309       C  0.84689643  0.96409806  0.29769155     0.77900
O1310       O  0.81111212  0.88800286  0.34366241    -0.60500
O1311       O  0.80351191  0.93784459  0.35613244    -0.51400
C1312       C  0.87227807  0.86121524  0.33877941     0.70600
O1313       O  0.87335888  0.88240296  0.31680547    -0.46300
C1314       C  0.88764316  0.94472129  0.39203002     0.75300
O1315       O  0.85497132  0.93445434  0.29357379    -0.58200
O1316       O  0.86222239  0.93424786  0.39803329    -0.48200
O1317       O  0.84496695  0.97283511  0.32658629    -0.54600
C1318       C  0.79248137  0.91012321  0.34744781     0.85500
O1319       O  0.86111229  0.87174539  0.36424251    -0.56500
O1320       O  0.89312615  0.94521979  0.36274195    -0.59800
C1321       C  0.85094106  0.70729088  0.34235583    -0.11000
C1322       C  0.87783372  0.71898518  0.33127374     0.15500
C1323       C  0.89924405  0.69570758  0.32275602     0.02400
C1324       C  0.89325070  0.66141116  0.32578763    -0.15400
C1325       C  0.86659309  0.64972889  0.33791520    -0.10200
C1326       C  0.84503490  0.67315123  0.34575330     0.09100
C1327       C  0.88256792  0.75569867  0.33043763     0.10200
S1328       S  0.93455351  0.70789916  0.30802534    -0.24500
H1329       H  0.90990916  0.64376158  0.31961752     0.20400
S1330       S  0.80937800  0.65993984  0.35897495    -0.30200
H1331       H  0.83454984  0.72522186  0.34859347     0.10700
C1332       C  0.87576125  0.77436688  0.30328408     0.03900
C1333       C  0.87518643  0.80936312  0.30568336    -0.12500
C1334       C  0.88105099  0.82601137  0.33485188    -0.08200
C1335       C  0.89042721  0.80726069  0.36116573     0.07400
C1336       C  0.89069722  0.77247341  0.35878562    -0.13300
S1337       S  0.86565783  0.75357860  0.26627514    -0.30200
H1338       H  0.86799829  0.82353577  0.28544231     0.11600
S1339       S  0.90155301  0.82613057  0.39877425    -0.27300
H1340       H  0.89640942  0.75824501  0.37956349     0.08900
H1341       H  0.79748850  0.69177941  0.36244604     0.27300
H1342       H  0.86692096  0.78211863  0.24736723     0.22100
H1343       H  0.91218701  0.85596099  0.38581802     0.27400
H1344       H  0.93535830  0.74064032  0.32019931     0.16200
C1345       C  0.59945353  0.19684846  0.16751242    -0.11000
C1346       C  0.61423352  0.21546907  0.19140013     0.15500
C1347       C  0.62852200  0.19861898  0.21626065     0.02400
C1348       C  0.62858736  0.16370856  0.21592350    -0.15400
C1349       C  0.61566050  0.14531947  0.19063065    -0.10200
C1350       C  0.60019579  0.16212895  0.16671365     0.09100
C1351       C  0.61475867  0.25227129  0.18908382     0.10200
S1352       S  0.64875549  0.22008915  0.24770900    -0.24500
H1353       H  0.64073921  0.15095118  0.23416804     0.20400
S1354       S  0.58148567  0.14067733  0.13412882    -0.30200
H1355       H  0.58788329  0.20957128  0.14879916     0.10700
C1356       C  0.62791743  0.26816939  0.16311334     0.03900
C1357       C  0.62791039  0.30293456  0.16161411    -0.12500
C1358       C  0.61547595  0.32251095  0.18578533    -0.08200
C1359       C  0.60135392  0.30638003  0.21117986     0.07400
C1360       C  0.60130760  0.27157179  0.21261954    -0.13300
S1361       S  0.64682088  0.24455032  0.13301374    -0.30200
H1362       H  0.63913948  0.31491694  0.14227808     0.11600
S1363       S  0.58280676  0.32852875  0.24230261    -0.27300
H1364       H  0.59062924  0.25937264  0.23222551     0.08900
H1365       H  0.57533583  0.11135003  0.15077361     0.27300
H1366       H  0.64879798  0.27019089  0.11071333     0.22100
H1367       H  0.57054952  0.35182246  0.22164523     0.27400
H1368       H  0.65855057  0.24663401  0.22901946     0.16200
C1369       C  0.60681623  0.77513716  0.42983153    -0.11000
C1370       C  0.62955663  0.76572532  0.45003096     0.15500
C1371       C  0.64630910  0.79036425  0.46660445     0.02400
C1372       C  0.64045939  0.82400667  0.46160692    -0.15400
C1373       C  0.61802668  0.83349759  0.44077576    -0.10200
C1374       C  0.60034376  0.80860813  0.42559700     0.09100
C1375       C  0.63304488  0.72975332  0.45462064     0.10200
S1376       S  0.67480702  0.78091233  0.49488851    -0.24500
H1377       H  0.65366591  0.84291253  0.47390254     0.20400
S1378       S  0.56804128  0.81877375  0.40288196    -0.30200
H1379       H  0.59352109  0.75592571  0.41812204     0.10700
C1380       C  0.61677057  0.71302838  0.47778208     0.03900
C1381       C  0.61572277  0.67817336  0.47743086    -0.12500
C1382       C  0.62970801  0.65987238  0.45352314    -0.08200
C1383       C  0.64728399  0.67665485  0.43133356     0.07400
C1384       C  0.64883990  0.71152429  0.43218837    -0.13300
S1385       S  0.59528720  0.73621428  0.50593146    -0.30200
H1386       H  0.60213427  0.66523547  0.49428176     0.11600
S1387       S  0.66703338  0.65393001  0.40129245    -0.27300
H1388       H  0.66103025  0.72472468  0.41429608     0.08900
H1389       H  0.55860128  0.78598744  0.39569532     0.27300
H1390       H  0.58009875  0.70873302  0.51831392     0.22100
H1391       H  0.68369370  0.68112423  0.39055192     0.27400
H1392       H  0.67703810  0.74675920  0.48816727     0.16200
C1393       C  0.85247408  0.21338935  0.11097595    -0.11000
C1394       C  0.85473001  0.22812325  0.08103673     0.15500
C1395       C  0.85737233  0.20723599  0.05382077     0.02400
C1396       C  0.86042230  0.17276875  0.05740252    -0.15400
C1397       C  0.85984481  0.15820258  0.08760911    -0.10200
C1398       C  0.85410763  0.17876424  0.11447076     0.09100
C1399       C  0.85740181  0.26518324  0.07952402     0.10200
S1400       S  0.85722570  0.22317912  0.01396094    -0.24500
H1401       H  0.86407508  0.15736970  0.03645749     0.20400
S1402       S  0.84840576  0.16140944  0.15337641    -0.30200
H1403       H  0.85024515  0.22924743  0.13186718     0.10700
C1404       C  0.83563922  0.28643824  0.09127886     0.03900
C1405       C  0.84070423  0.32107746  0.09232342    -0.12500
C1406       C  0.86702775  0.33499626  0.08187840    -0.08200
C1407       C  0.88850987  0.31387538  0.06945491     0.07400
C1408       C  0.88348651  0.27936820  0.06842311    -0.13300
S1409       S  0.80155346  0.26961503  0.10544793    -0.30200
H1410       H  0.82453769  0.33735837  0.10235208     0.11600
S1411       S  0.92358648  0.32918883  0.05669645    -0.27300
H1412       H  0.90049328  0.26330615  0.05982067     0.08900
H1413       H  0.83895705  0.19076946  0.16840938     0.27300
H1414       H  0.78772943  0.30025977  0.10993546     0.22100
H1415       H  0.91412080  0.36041701  0.04671186     0.27400
H1416       H  0.83971873  0.25068071  0.02084741     0.16200
N1417       N  0.50969645  0.08952611  0.54262285    -0.36300
N1418       N  0.56363340  0.05779910  0.49613752    -0.56800
N1419       N  0.57721076  0.01886619  0.54727546    -0.36300
N1420       N  0.53010748  0.04719139  0.58991294    -0.56800
C1421       C  0.50205856  0.08798067  0.51155181     0.27300
C1422       C  0.48491612  0.08916236  0.55962698     0.27300
C1423       C  0.59530399  0.00546314  0.52500795     0.27300
C1424       C  0.58878396  0.01348205  0.57640692     0.27300
C1425       C  0.53420272  0.06854595  0.97720913     0.35900
C1426       C  0.57309951  0.03854682  0.97513227     0.35900
C1427       C  0.50561036  0.05741617  0.60489363     0.35900
C1428       C  0.54856598  0.03529728  0.61210005     0.35900
C1429       C  0.97468412  0.09770779  0.51311652    -0.21500
C1430       C  0.96364040  0.09759193  0.54339345    -0.21500
C1431       C  0.61769428  0.98951241  0.54035294    -0.21500
C1432       C  0.61401734  0.99514735  0.57260867    -0.21500
C1433       C  0.53720547  0.05854861  0.94577826    -0.22600
C1434       C  0.56173543  0.03934311  0.94428621    -0.22600
C1435       C  0.50771445  0.05029322  0.63682549    -0.22600
C1436       C  0.53500961  0.03711693  0.64159701    -0.22600
C1437       C  0.51299764  0.06192845  0.49319156    -0.18000
C1438       C  0.48194989  0.07416255  0.59010625    -0.18000
C1439       C  0.57796679  0.02523668  0.60637229    -0.17900
C1440       C  0.58955351  0.01245156  0.98866519    -0.17900
H1441       H  0.96150323  0.09554466  0.49159761     0.15000
H1442       H  0.94056791  0.09666832  0.54797543     0.15000
H1443       H  0.63566807  0.97676770  0.52940858     0.15000
H1444       H  0.62827983  0.98633239  0.59122715     0.15000
H1445       H  0.52022860  0.05849171  0.92765248     0.13200
H1446       H  0.56662700  0.02368384  0.92403017     0.13200
H1447       H  0.49186586  0.05553407  0.65501255     0.13200
H1448       H  0.54325845  0.02927482  0.66438731     0.13200
H1449       H  0.53081060  0.08533304  0.55052630     0.26500
H1450       H  0.55761472  0.03044674  0.54340421     0.26500
N1451       N  0.00818085  0.98802087  0.96423308    -0.36300
N1452       N  0.95752907  0.02251998  0.51204470    -0.56800
N1453       N  0.91639482  0.97140515  0.97122075    -0.36300
N1454       N  0.96352903  0.94998016  0.92917723    -0.56800
C1455       C  0.01689039  0.99836253  0.99331761     0.27300
C1456       C  0.01760525  0.95690685  0.96086399     0.27300
C1457       C  0.89999513  0.99314991  0.49401666     0.27300
C1458       C  0.90096345  0.96597925  0.94385443     0.27300
C1459       C  0.98367564  0.02229674  0.52657426     0.35900
C1460       C  0.94006498  0.00362198  0.52994576     0.35900
C1461       C  0.98828188  0.93787544  0.91616186     0.35900
C1462       C  0.94088549  0.94100779  0.90990889     0.35900
C1463       C  0.52949227  0.97497824  0.00699892    -0.21500
C1464       C  0.53157421  0.94963982  0.98500955    -0.21500
C1465       C  0.87244044  0.99325034  0.97857170    -0.21500
C1466       C  0.87342928  0.97950163  0.94800591    -0.21500
C1467       C  0.98293833  0.00222842  0.55310491    -0.22600
C1468       C  0.95463599  0.99158133  0.55611833    -0.22600
C1469       C  0.98173851  0.92110346  0.88807341    -0.22600
C1470       C  0.95178310  0.92285062  0.88408661    -0.22600
C1471       C  0.00860395  0.02964915  0.50962208    -0.18000
C1472       C  0.01545751  0.93925001  0.93238709    -0.18000
C1473       C  0.91087052  0.94891478  0.91562746    -0.18300
C1474       C  0.91031797  0.00244158  0.52490635    -0.17900
H1475       H  0.53704156  0.97459203  0.03146618     0.15000
H1476       H  0.54163033  0.92587526  0.98876641     0.15000
H1477       H  0.85399668  0.00811256  0.49341386     0.15000
H1478       H  0.85584458  0.98010227  0.93068239     0.15000
H1479       H  0.00109044  0.99518362  0.56800253     0.13200
H1480       H  0.94592711  0.97596414  0.57458354     0.13200
H1481       H  0.99665707  0.90783663  0.87291696     0.13200
H1482       H  0.93971411  0.91090925  0.86470897     0.13200
H1483       H  0.99625127  0.00152537  0.94767769     0.26500
H1484       H  0.93714469  0.96274027  0.97634765     0.26500
In1485     In  0.88843902  0.43158060  0.59936097     1.36900
C1486       C  0.88962537  0.48199486  0.55795456     0.77900
O1487       O  0.84224183  0.44189680  0.61497146    -0.60500
O1488       O  0.87587300  0.44049382  0.64982191    -0.51400
C1489       C  0.87097231  0.37022752  0.58382694     0.70600
O1490       O  0.87299339  0.39259659  0.56313377    -0.46300
C1491       C  0.94677786  0.43120562  0.61050918     0.75300
O1492       O  0.89385244  0.45227763  0.54936523    -0.58200
O1493       O  0.93022844  0.45235744  0.62288427    -0.48200
O1494       O  0.88092569  0.48482141  0.58613275    -0.54600
C1495       C  0.84905295  0.44450952  0.64414437     0.85500
O1496       O  0.87702680  0.37968866  0.61191750    -0.56500
O1497       O  0.93303616  0.40738868  0.59716251    -0.59800
In1498     In  0.89326840  0.06218036  0.60105853     1.36900
C1499       C  0.89492224  0.02109764  0.55015749     0.77900
O1500       O  0.93502945  0.09337237  0.60415798    -0.60500
O1501       O  0.93981511  0.04208695  0.60949890    -0.51400
C1502       C  0.87551330  0.12476850  0.59444194     0.70600
O1503       O  0.87430922  0.10372927  0.57162809    -0.46300
C1504       C  0.85461486  0.04017353  0.64430966     0.75300
O1505       O  0.88893086  0.05151134  0.54755576    -0.58200
O1506       O  0.88047371  0.04886051  0.65164063    -0.48200
O1507       O  0.89575057  0.01131474  0.57854043    -0.54600
C1508       C  0.95245747  0.06969365  0.60501556     0.85500
O1509       O  0.88433171  0.11285066  0.62031677    -0.56500
O1510       O  0.84930722  0.04169623  0.61490452    -0.59800
N1511       N  0.48111163  0.49371566  0.57129662    -0.36300
N1512       N  0.52722140  0.45520049  0.60553195    -0.56800
N1513       N  0.57383946  0.47626303  0.56412856    -0.36300
N1514       N  0.53438597  0.52201540  0.52715065    -0.56800
C1515       C  0.47352385  0.46146165  0.57286966     0.27300
C1516       C  0.47269471  0.50339618  0.54224929     0.27300
C1517       C  0.58980202  0.47078718  0.59081746     0.27300
C1518       C  0.59071916  0.49315799  0.54320710     0.27300
C1519       C  0.50211883  0.44190507  0.61710797     0.35900
C1520       C  0.54971946  0.44498682  0.62380072     0.35900
C1521       C  0.50884196  0.52522346  0.51179098     0.35900
C1522       C  0.55093137  0.50378710  0.50765287     0.35900
C1523       C  0.95973215  0.44751711  0.54402741    -0.21500
C1524       C  0.95997136  0.47385122  0.52372508    -0.21500
C1525       C  0.61759838  0.48451593  0.58632150    -0.21500
C1526       C  0.61815739  0.49834015  0.55621958    -0.21500
C1527       C  0.50826002  0.42331503  0.64352691    -0.22600
C1528       C  0.53831603  0.42505550  0.64777147    -0.22600
C1529       C  0.50809415  0.49799645  0.98156761    -0.22600
C1530       C  0.53642513  0.48822243  0.97865238    -0.22600
C1531       C  0.47508883  0.44355119  0.60060106    -0.18000
C1532       C  0.48393929  0.53190661  0.52880805    -0.18000
C1533       C  0.58071352  0.50217884  0.51254113    -0.17900
C1534       C  0.58003608  0.45315563  0.61843164    -0.17900
H1535       H  0.95066127  0.42290467  0.53908026     0.15000
H1536       H  0.95213587  0.47350256  0.49933102     0.15000
H1537       H  0.63570094  0.48521328  0.60301780     0.15000
H1538       H  0.63646506  0.51089224  0.54537610     0.15000
H1539       H  0.49301510  0.40866429  0.65715723     0.13200
H1540       H  0.55010974  0.41174036  0.66578237     0.13200
H1541       H  0.49020054  0.49121205  0.96564824     0.13200
H1542       H  0.54542314  0.47379613  0.95926708     0.13200
H1543       H  0.49195134  0.50818808  0.58879966     0.26500
H1544       H  0.55288795  0.46723222  0.55895890     0.26500
N1545       N  0.98633074  0.58981285  0.99018747    -0.36300
N1546       N  0.93012198  0.56028643  0.53942527    -0.56800
N1547       N  0.91604727  0.52253154  0.98131621    -0.36300
N1548       N  0.96506931  0.54817008  0.94040765    -0.56800
C1549       C  0.99376222  0.58842717  0.02125950     0.27300
C1550       C  0.01120315  0.58986258  0.97339282     0.27300
C1551       C  0.89797998  0.50789913  0.00289158     0.27300
C1552       C  0.90556499  0.51517814  0.95175072     0.27300
C1553       C  0.95393606  0.56798244  0.55717316     0.35900
C1554       C  0.91456163  0.53746533  0.55509236     0.35900
C1555       C  0.99035160  0.55798401  0.92655113     0.35900
C1556       C  0.94633796  0.53739708  0.91724040     0.35900
C1557       C  0.51935260  0.59175919  0.02860544    -0.21500
C1558       C  0.53154858  0.59278918  0.99888069    -0.21500
C1559       C  0.87662708  0.48961334  0.98665044    -0.21500
C1560       C  0.88104769  0.49456243  0.95461577    -0.21500
C1561       C  0.94968136  0.55636006  0.58757732    -0.22600
C1562       C  0.92479139  0.53677853  0.58642640    -0.22600
C1563       C  0.98849770  0.55138156  0.89422580    -0.22600
C1564       C  0.96048210  0.53925726  0.88815117    -0.22600
C1565       C  0.98082961  0.56259319  0.54304609    -0.18000
C1566       C  0.01422994  0.57458699  0.94264384    -0.18000
C1567       C  0.91659803  0.52723052  0.92215371    -0.17900
C1568       C  0.89894570  0.51134088  0.53880456    -0.17900
H1569       H  0.53162840  0.58880969  0.05052712     0.15000
H1570       H  0.55475552  0.59211486  0.99524174     0.15000
H1571       H  0.85901954  0.47588115  0.49744018     0.15000
H1572       H  0.86788296  0.48354470  0.93551908     0.15000
H1573       H  0.96606909  0.55544497  0.60628707     0.13200
H1574       H  0.91905762  0.51973482  0.60498593     0.13200
H1575       H  0.00497381  0.55652174  0.87668322     0.13200
H1576       H  0.95206017  0.53208155  0.86486663     0.13200
H1577       H  0.96518238  0.58515244  0.98198188     0.26500
H1578       H  0.93497255  0.53626886  0.98583470     0.26500
In1579     In  0.60173175  0.93255423  0.92493587     1.36900
C1580       C  0.59874499  0.98404285  0.96732791     0.77900
O1581       O  0.64761520  0.94463813  0.90872933    -0.60500
O1582       O  0.61514714  0.93623153  0.87348585    -0.51400
C1583       C  0.61443827  0.87028240  0.94017341     0.70600
O1584       O  0.62459271  0.89501238  0.95610048    -0.46300
C1585       C  0.54341297  0.93214669  0.91780495     0.75300
O1586       O  0.59925094  0.95406579  0.97588321    -0.58200
O1587       O  0.55976551  0.95180196  0.90272756    -0.48200
O1588       O  0.60342840  0.98729243  0.93807945    -0.54600
C1589       C  0.64174105  0.94274921  0.87937016     0.85500
O1590       O  0.59911467  0.87772287  0.91630524    -0.56500
O1591       O  0.55698173  0.90970005  0.93182064    -0.59800
In1592     In  0.60217784  0.56024917  0.93922138     1.36900
C1593       C  0.59664760  0.51835120  0.98808059     0.77900
O1594       O  0.56211139  0.59221965  0.93933611    -0.60500
O1595       O  0.55533255  0.54187255  0.92702007    -0.51400
C1596       C  0.62304948  0.62248255  0.94674542     0.70600
O1597       O  0.62169459  0.60231763  0.96956962    -0.46300
C1598       C  0.63911062  0.53661270  0.89548568     0.75300
O1599       O  0.60465175  0.54835011  0.99238433    -0.58200
O1600       O  0.61332697  0.54472835  0.88876011    -0.48200
O1601       O  0.59601547  0.50914733  0.95923582    -0.54600
C1602       C  0.54382238  0.56894766  0.93498991     0.85500
O1603       O  0.61534331  0.61002120  0.92008170    -0.56500
O1604       O  0.64550751  0.53992058  0.92469946    -0.59800
N1605       N  0.73368700  0.88764488  0.78460000    -0.36300
N1606       N  0.67946200  0.92001362  0.73933321    -0.56800
N1607       N  0.66433888  0.95426499  0.79456671    -0.36300
N1608       N  0.71223189  0.92653786  0.83575093    -0.56800
C1609       C  0.74124000  0.89037323  0.75382566     0.27300
C1610       C  0.75849088  0.88792987  0.80220034     0.27300
C1611       C  0.64720860  0.97020535  0.77292644     0.27300
C1612       C  0.65338597  0.95959273  0.82395653     0.27300
C1613       C  0.70295574  0.91191255  0.72223726     0.35900
C1614       C  0.66481667  0.94294918  0.72317679     0.35900
C1615       C  0.73709108  0.91571950  0.84999872     0.35900
C1616       C  0.69317089  0.93495406  0.85877600     0.35900
C1617       C  0.77055126  0.88394826  0.75118558    -0.21500
C1618       C  0.78165414  0.88250267  0.78166500    -0.21500
C1619       C  0.62606218  0.98743248  0.78911702    -0.21500
C1620       C  0.62947875  0.98021400  0.82101636    -0.21500
C1621       C  0.69921530  0.92355192  0.69170084    -0.22600
C1622       C  0.67523651  0.94358815  0.69217572    -0.22600
C1623       C  0.73452631  0.91882708  0.88257022    -0.22600
C1624       C  0.70665929  0.92997982  0.88822187    -0.22600
C1625       C  0.73009093  0.91703879  0.73706188    -0.18000
C1626       C  0.76123493  0.90120921  0.83391984    -0.18000
C1627       C  0.66388256  0.94634175  0.85345755    -0.17900
C1628       C  0.64952499  0.96882110  0.73889034    -0.17900
H1629       H  0.78363689  0.88787043  0.73025679     0.15000
H1630       H  0.80471463  0.88372907  0.78691417     0.15000
H1631       H  0.60916222  0.00249507  0.77888068     0.15000
H1632       H  0.61611712  0.98976498  0.84002027     0.15000
H1633       H  0.71564892  0.92418053  0.67343642     0.13200
H1634       H  0.67034137  0.96075024  0.67347291     0.13200
H1635       H  0.75043034  0.91199170  0.90041062     0.13200
H1636       H  0.69805756  0.93431984  0.91167697     0.13200
H1637       H  0.71257659  0.89142916  0.79233116     0.26500
H1638       H  0.68304096  0.94103630  0.79019065     0.26500
N1639       N  0.73282977  0.98872739  0.71125512    -0.36300
N1640       N  0.77908145  0.02749132  0.67914257    -0.56800
N1641       N  0.82552594  0.00590087  0.72216026    -0.36300
N1642       N  0.78522085  0.95976983  0.75776583    -0.56800
C1643       C  0.72479030  0.02037654  0.70863561     0.27300
C1644       C  0.72410649  0.97917570  0.74004695     0.27300
C1645       C  0.84173340  0.01270731  0.69622336     0.27300
C1646       C  0.84232600  0.98948511  0.74357435     0.27300
C1647       C  0.75431480  0.03917828  0.66547877     0.35900
C1648       C  0.80193495  0.03695278  0.66123011     0.35900
C1649       C  0.75923493  0.95773735  0.77183566     0.35900
C1650       C  0.80236965  0.97764277  0.77792717     0.35900
C1651       C  0.71098081  0.03133768  0.73585446    -0.21500
C1652       C  0.71167666  0.00535050  0.75650716    -0.21500
C1653       C  0.86960666  0.00042381  0.70176344    -0.21500
C1654       C  0.86994037  0.98604239  0.73163382    -0.21500
C1655       C  0.76102802  0.05602439  0.63822290    -0.22600
C1656       C  0.79108354  0.05494505  0.63556189    -0.22600
C1657       C  0.75957023  0.97546181  0.80042439    -0.22600
C1658       C  0.78761397  0.98683346  0.80507342    -0.22600
C1659       C  0.72696619  0.03760820  0.68062968    -0.18000
C1660       C  0.73443347  0.95069367  0.75376591    -0.18000
C1661       C  0.83215920  0.97942013  0.77379417    -0.17900
C1662       C  0.83207719  0.02969597  0.66806292    -0.17900
H1663       H  0.70232876  0.05575043  0.74062224     0.15000
H1664       H  0.70432188  0.00569529  0.78086729     0.15000
H1665       H  0.88792589  0.00097384  0.68587037     0.15000
H1666       H  0.88824706  0.97431456  0.74304769     0.15000
H1667       H  0.74614363  0.06906133  0.62287429     0.13200
H1668       H  0.80318616  0.06735036  0.61721278     0.13200
H1669       H  0.74130253  0.98055387  0.81563183     0.13200
H1670       H  0.79600724  0.00103100  0.82540319     0.13200
H1671       H  0.74404977  0.97451475  0.69450231     0.26500
H1672       H  0.80431744  0.01342942  0.72629665     0.26500
In1673     In  0.64149471  0.41821422  0.68487015     1.36900
C1674       C  0.64534180  0.45638900  0.73827313     0.77900
O1675       O  0.68014121  0.38509838  0.69014925    -0.60500
O1676       O  0.69005445  0.43156237  0.67165024    -0.51400
C1677       C  0.62123373  0.35573767  0.68524846     0.70600
O1678       O  0.61915224  0.37518619  0.70910817    -0.46300
C1679       C  0.60262987  0.44232230  0.64233115     0.75300
O1680       O  0.63434441  0.42738872  0.73803511    -0.58200
O1681       O  0.62862375  0.43561140  0.63533631    -0.48200
O1682       O  0.65051206  0.46718482  0.71079753    -0.54600
C1683       C  0.70014927  0.40464587  0.68212597     0.85500
O1684       O  0.63237089  0.36901293  0.66110596    -0.56500
O1685       O  0.59730985  0.43829340  0.67135757    -0.59800
In1686     In  0.63970425  0.04735225  0.67693795     1.36900
C1687       C  0.64051206  0.99774017  0.71918643     0.77900
O1688       O  0.59483394  0.03018157  0.66147671    -0.60500
O1689       O  0.62632442  0.03935551  0.62605487    -0.51400
C1690       C  0.61990199  0.10839056  0.68705854     0.70600
O1691       O  0.62105620  0.08741593  0.70913003    -0.46300
C1692       C  0.69804210  0.04827502  0.66895071     0.75300
O1693       O  0.64458707  0.02779380  0.72765936    -0.58200
O1694       O  0.68122086  0.02819161  0.65399231    -0.48200
O1695       O  0.63221829  0.99418753  0.69065089    -0.54600
C1696       C  0.60028028  0.03102623  0.63213466     0.85500
O1697       O  0.62903344  0.09802486  0.66062504    -0.56500
O1698       O  0.68473281  0.07098011  0.68335543    -0.59800
N1699       N  0.75334685  0.46601767  0.83891981    -0.36300
N1700       N  0.71290062  0.51517642  0.86375704    -0.56800
N1701       N  0.66694965  0.49836871  0.81810581    -0.36300
N1702       N  0.70151303  0.44335125  0.79127410    -0.56800
C1703       C  0.76633468  0.49630779  0.83782768     0.27300
C1704       C  0.76250437  0.44953871  0.81288021     0.27300
C1705       C  0.65021473  0.50724226  0.84302004     0.27300
C1706       C  0.64981222  0.48336422  0.79530737     0.27300
C1707       C  0.73833706  0.52926110  0.87445952     0.35900
C1708       C  0.69084592  0.53133998  0.87773569     0.35900
C1709       C  0.72631872  0.43072895  0.77999069     0.35900
C1710       C  0.69019775  0.46104302  0.76725238     0.35900
C1711       C  0.78209307  0.49982638  0.81034790    -0.21500
C1712       C  0.77895313  0.47062888  0.79427936    -0.21500
C1713       C  0.62146916  0.49784979  0.83534100    -0.21500
C1714       C  0.62125007  0.48329630  0.80498840    -0.21500
C1715       C  0.73275878  0.55465386  0.89590793    -0.22600
C1716       C  0.70263770  0.55580885  0.89829837    -0.22600
C1717       C  0.73165958  0.44327203  0.74999595    -0.22600
C1718       C  0.70831169  0.46147101  0.74141690    -0.22600
C1719       C  0.76549034  0.52059847  0.86156072    -0.18000
C1720       C  0.74893781  0.42098624  0.80012881    -0.18000
C1721       C  0.66128496  0.47030481  0.76668002    -0.17900
C1722       C  0.66050646  0.52458270  0.87139438    -0.17900
H1723       H  0.79304282  0.52182148  0.80166277     0.15000
H1724       H  0.78588686  0.46645197  0.77029432     0.15000
H1725       H  0.60240496  0.50072942  0.84986545     0.15000
H1726       H  0.60250330  0.47310742  0.79208217     0.15000
H1727       H  0.74851765  0.57125463  0.90755919     0.13200
H1728       H  0.69089023  0.57389045  0.91225389     0.13200
H1729       H  0.75169964  0.44229935  0.73704087     0.13200
H1730       H  0.70547033  0.47455684  0.71934397     0.13200
H1731       H  0.73950334  0.45687987  0.85641773     0.26500
H1732       H  0.68901160  0.50373968  0.81528158     0.26500
N1733       N  0.76397470  0.37996891  0.73427415    -0.36300
N1734       N  0.81588995  0.41043749  0.77882485    -0.56800
N1735       N  0.82863151  0.45280319  0.72952683    -0.36300
N1736       N  0.78100387  0.42459236  0.68711902    -0.56800
C1737       C  0.75775001  0.37153339  0.76438577     0.27300
C1738       C  0.73901471  0.37735125  0.71642982     0.27300
C1739       C  0.84672835  0.46654188  0.75238964     0.27300
C1740       C  0.83944807  0.46008733  0.70068539     0.27300
C1741       C  0.79776246  0.39339042  0.79781633     0.35900
C1742       C  0.83315268  0.43056451  0.79729126     0.35900
C1743       C  0.75454598  0.41697772  0.67403154     0.35900
C1744       C  0.79778190  0.43936372  0.66522782     0.35900
C1745       C  0.73038834  0.35685203  0.76456772    -0.21500
C1746       C  0.71880670  0.35956599  0.73440247    -0.21500
C1747       C  0.86858938  0.48446618  0.73778921    -0.21500
C1748       C  0.86444187  0.47983229  0.70529401    -0.21500
C1749       C  0.80696359  0.39858474  0.82906883    -0.22600
C1750       C  0.82941349  0.42181244  0.82887116    -0.22600
C1751       C  0.75384679  0.42853707  0.64317631    -0.22600
C1752       C  0.78148048  0.44172449  0.63724265    -0.22600
C1753       C  0.76778208  0.39178546  0.79013657    -0.18000
C1754       C  0.73218836  0.39789762  0.68932139    -0.18000
C1755       C  0.82767880  0.44922492  0.67037420    -0.17900
C1756       C  0.84534856  0.46111811  0.78589695    -0.17900
H1757       H  0.71826423  0.34974659  0.78539945     0.15000
H1758       H  0.69675267  0.35194310  0.72868294     0.15000
H1759       H  0.88657934  0.49784478  0.74931833     0.15000
H1760       H  0.87809828  0.49044763  0.68713162     0.15000
H1761       H  0.79534199  0.39104076  0.85010163     0.13200
H1762       H  0.83898630  0.43301560  0.85011915     0.13200
H1763       H  0.73597275  0.42608343  0.62621754     0.13200
H1764       H  0.78832879  0.45254896  0.61510303     0.13200
H1765       H  0.78350435  0.39159674  0.72908769     0.26500
H1766       H  0.80949495  0.43962072  0.73291959     0.26500
In1767     In  0.85190477  0.54179923  0.85274475     1.36900
C1768       C  0.85141161  0.49014963  0.80887299     0.77900
O1769       O  0.89954208  0.53432447  0.86704182    -0.60500
O1770       O  0.86768528  0.53511245  0.90256915    -0.51400
C1771       C  0.86074387  0.60657529  0.84120693     0.70600
O1772       O  0.86856301  0.58405651  0.82185611    -0.46300
C1773       C  0.79457605  0.53659801  0.86713451     0.75300
O1774       O  0.85160399  0.52038178  0.80098297    -0.58200
O1775       O  0.81426343  0.52109782  0.88150656    -0.48200
O1776       O  0.85339588  0.48708699  0.83854624    -0.54600
C1777       C  0.89424186  0.53181365  0.89629662     0.85500
O1778       O  0.84972586  0.59560713  0.86633588    -0.56500
O1779       O  0.80451522  0.55791312  0.84826482    -0.59800
In1780     In  0.85069411  0.91615278  0.84561793     1.36900
C1781       C  0.84781856  0.96025192  0.79842956     0.77900
O1782       O  0.81031786  0.88272094  0.84303281    -0.60500
O1783       O  0.80335918  0.93248662  0.85576891    -0.51400
C1784       C  0.87095545  0.85494680  0.83614062     0.70600
O1785       O  0.86816597  0.87536924  0.81371845    -0.46300
C1786       C  0.88860503  0.93862093  0.89075073     0.75300
O1787       O  0.85659091  0.93099771  0.79351059    -0.58200
O1788       O  0.86306740  0.92863423  0.89709457    -0.48200
O1789       O  0.84497779  0.96767187  0.82751721    -0.54600
C1790       C  0.79190594  0.90509547  0.84678766     0.85500
O1791       O  0.86473063  0.86656715  0.86329482    -0.56500
O1792       O  0.89393780  0.93826948  0.86139352    -0.59800
C1793       C  0.85019038  0.70042386  0.84526848    -0.11000
C1794       C  0.87424603  0.71223232  0.82835054     0.15500
C1795       C  0.89286182  0.68905834  0.81370092     0.02400
C1796       C  0.88751505  0.65474728  0.81725388    -0.15400
C1797       C  0.86410936  0.64291589  0.83542844    -0.10200
C1798       C  0.84468356  0.66621858  0.84868885     0.09100
C1799       C  0.87855556  0.74894421  0.82658304     0.10200
S1800       S  0.92351682  0.70152186  0.78998716    -0.24500
H1801       H  0.90224316  0.63718825  0.80648702     0.20400
S1802       S  0.81184857  0.65286017  0.86855139    -0.30200
H1803       H  0.83556196  0.71829000  0.85569278     0.10700
C1804       C  0.86569974  0.76742841  0.80207331     0.03900
C1805       C  0.86586987  0.80241919  0.80432125    -0.12500
C1806       C  0.87813088  0.81935156  0.83096495    -0.08200
C1807       C  0.89278761  0.80077310  0.85434655     0.07400
C1808       C  0.89257757  0.76590482  0.85208787    -0.13300
S1809       S  0.84716414  0.74632944  0.76916821    -0.30200
H1810       H  0.85459370  0.81649990  0.78637824     0.11600
S1811       S  0.91182509  0.82013621  0.88777987    -0.27300
H1812       H  0.90271543  0.75180427  0.87084628     0.08900
H1813       H  0.80141591  0.68468559  0.87607921     0.27300
H1814       H  0.83829367  0.77508155  0.75337043     0.22100
H1815       H  0.92047886  0.84870534  0.87118642     0.27400
H1816       H  0.92886811  0.73244369  0.80520238     0.16200
C1817       C  0.59295403  0.19404556  0.66798323    -0.11000
C1818       C  0.60574634  0.21294035  0.69299723     0.15500
C1819       C  0.61872649  0.19635913  0.71884014     0.02400
C1820       C  0.62027173  0.16152117  0.71804286    -0.15400
C1821       C  0.61012675  0.14298143  0.69141143    -0.10200
C1822       C  0.59504677  0.15938340  0.66686316     0.09100
C1823       C  0.60783755  0.24961017  0.68971353     0.10200
S1824       S  0.63568069  0.21821007  0.75226124    -0.24500
H1825       H  0.63174404  0.14913728  0.73703766     0.20400
S1826       S  0.57885658  0.13757388  0.63293833    -0.30200
H1827       H  0.58245249  0.20657001  0.64841184     0.10700
C1828       C  0.62640772  0.26378849  0.66693670     0.03900
C1829       C  0.62923807  0.29846063  0.66527503    -0.12500
C1830       C  0.61387932  0.31960289  0.68581914    -0.08200
C1831       C  0.59417418  0.30530135  0.70757945     0.07400
C1832       C  0.59166616  0.27052551  0.70959727    -0.13300
S1833       S  0.64785673  0.23774021  0.64105928    -0.30200
H1834       H  0.64443866  0.30912857  0.64862448     0.11600
S1835       S  0.57099394  0.32991922  0.73254557    -0.27300
H1836       H  0.57692796  0.25966385  0.72665667     0.08900
H1837       H  0.57244385  0.10806754  0.64920937     0.27300
H1838       H  0.66009344  0.26344953  0.62296088     0.22100
H1839       H  0.56566371  0.35398294  0.70932668     0.27400
H1840       H  0.64632626  0.24542275  0.73504200     0.16200
C1841       C  0.59959884  0.77892885  0.95560754    -0.11000
C1842       C  0.62782609  0.76606617  0.95646332     0.15500
C1843       C  0.65192776  0.78844161  0.95488115     0.02400
C1844       C  0.64726054  0.82263212  0.95087610    -0.15400
C1845       C  0.61897521  0.83510319  0.94867903    -0.10200
C1846       C  0.59496009  0.81310457  0.95210939     0.09100
C1847       C  0.63097218  0.72912023  0.95654415     0.10200
S1848       S  0.68907290  0.77487142  0.95742359    -0.24500
H1849       H  0.66579533  0.83944583  0.94855470     0.20400
S1850       S  0.55824549  0.82857452  0.95243062    -0.30200
H1851       H  0.58110637  0.76192846  0.95690428     0.10700
C1852       C  0.62062577  0.70968152  0.98184907     0.03900
C1853       C  0.62031697  0.67475882  0.97896760    -0.12500
C1854       C  0.62995486  0.65862863  0.95119710    -0.08200
C1855       C  0.64236102  0.67803016  0.92687765     0.07400
C1856       C  0.64247129  0.71299248  0.92968224    -0.13300
S1857       S  0.60731556  0.72934215  0.01767907    -0.30200
H1858       H  0.61106521  0.65998924  0.99776965     0.11600
S1859       S  0.65848070  0.65850259  0.89243636    -0.27300
H1860       H  0.65073311  0.72793209  0.91046140     0.08900
H1861       H  0.54441110  0.79857443  0.96095235     0.27300
H1862       H  0.60100034  0.69993093  0.03410947     0.22100
H1863       H  0.66962673  0.68780742  0.87893214     0.27400
H1864       H  0.68331231  0.74665974  0.97580972     0.16200
C1865       C  0.86990509  0.21856985  0.60937826    -0.11000
C1866       C  0.85762787  0.22903895  0.58064158     0.15500
C1867       C  0.85000935  0.20503532  0.55693852     0.02400
C1868       C  0.85562390  0.17129972  0.56222273    -0.15400
C1869       C  0.86834415  0.16067335  0.59093926    -0.10200
C1870       C  0.87522547  0.18494628  0.61500544     0.09100
C1871       C  0.85561232  0.26546710  0.57587966     0.10200
S1872       S  0.83319853  0.21576723  0.51952148    -0.24500
H1873       H  0.85007252  0.15320916  0.54361437     0.20400
S1874       S  0.89178329  0.17433232  0.65275559    -0.30200
H1875       H  0.87595032  0.23721070  0.62729505     0.10700
C1876       C  0.83840862  0.28536157  0.59594350     0.03900
C1877       C  0.84232350  0.31999745  0.59611619    -0.12500
C1878       C  0.86306073  0.33523342  0.57667302    -0.08200
C1879       C  0.87871902  0.31555774  0.55484408     0.07400
C1880       C  0.87467556  0.28089205  0.55452911    -0.13300
S1881       S  0.81239609  0.26657296  0.62242257    -0.30200
H1882       H  0.83019489  0.33526604  0.61259631     0.11600
S1883       S  0.90614720  0.33274042  0.52920601    -0.27300
H1884       H  0.88805732  0.26569404  0.53921545     0.08900
H1885       H  0.89529772  0.20681196  0.66537093     0.27300
H1886       H  0.80222409  0.29635842  0.63598481     0.22100
H1887       H  0.91862568  0.35441983  0.55241342     0.27400
H1888       H  0.82164012  0.24624695  0.52963871     0.16200
loop_ 
_geom_bond_atom_site_label_1 
_geom_bond_atom_site_label_2 
_geom_bond_distance 
_geom_bond_site_symmetry_2 
_ccdc_geom_bond_type 
N1            C6   1.350   1_455  A
N1            C5   1.348   1_455  A
N1           H33   1.038       .  S
N2          C481   1.345       .  A
N2          C482   1.341       .  A
N3            C8   1.351       .  A
N3            C7   1.371       .  A
N3           H34   1.033       .  S
N4           C11   1.364       .  A
N4           C12   1.354       .  A
C5           C21   1.396   1_654  A
C5          C957   1.381       .  A
C6           C22   1.430       .  A
C6          C958   1.395       .  A
C7           C15   1.382   1_545  A
C7          C496   1.435   1_554  A
C8           C23   1.434       .  A
C8           C16   1.393   1_545  A
C9          N474   1.345       .  A
C9           C17   1.382       .  A
C9          C493   1.398       .  A
C10         N474   1.342       .  A
C10          C24   1.423       .  A
C10          C18   1.391       .  A
C11          C19   1.379       .  A
C11          C22   1.432   1_455  A
C12          C20   1.394       .  A
C12          C23   1.441       .  A
C13          C14   1.375       .  A
C13         C949   1.381       .  A
C13          H25   1.083   1_554  S
C14         C950   1.395       .  A
C14          H26   1.079       .  S
C15          C16   1.380       .  A
C15          H27   1.082       .  S
C16          H28   1.082       .  S
C17          C18   1.377       .  A
C17          H29   1.083       .  S
C18          H30   1.078       .  S
C19          C20   1.384       .  A
C19          H31   1.082   1_455  S
C20          H32   1.079       .  S
C21         C481   1.399       .  A
C21         C999   1.524   1_556  S
C22        C1036   1.505       .  S
C23         C280   1.498       .  S
C24         C479   1.432       .  A
C24         C164   1.504   1_545  S
N35          C40   1.337       .  A
N35          C39   1.339       .  A
N35          H67   1.045   1_565  S
N36          C43   1.339       .  A
N36          C44   1.340   1_545  A
N37          C42   1.356       .  A
N37         C513   1.367       .  A
N37          H68   1.043       .  S
N38          C45   1.363       .  A
N38          C46   1.350       .  A
C39         C991   1.385       .  A
C39         C527   1.381   1_565  A
C40          C56   1.377       .  A
C40         C992   1.382       .  A
C41         N509   1.362       .  A
C41          C58   1.416   1_556  A
C41         C521   1.379       .  A
C42          C57   1.443       .  A
C42          C50   1.396       .  A
C43          C55   1.383       .  A
C43          C51   1.387       .  A
C44          C58   1.379       .  A
C44          C52   1.380       .  A
C45          C53   1.376       .  A
C45          C56   1.413       .  A
C46          C54   1.400       .  A
C46          C57   1.441       .  A
C47          C48   1.368       .  A
C47         C983   1.386   1_565  A
C47          H59   1.081       .  S
C48         C984   1.382       .  A
C48          H60   1.082       .  S
C49          C50   1.394       .  A
C49         C513   1.380       .  A
C49         H533   1.082   1_565  S
C50          H62   1.082       .  S
C51          C52   1.369   1_545  A
C51          H63   1.081   1_545  S
C52          H64   1.082       .  S
C53          C54   1.385       .  A
C53          H65   1.082       .  S
C54          H66   1.080       .  S
C55         C511   1.381   1_554  A
C55         C965   1.522   1_554  S
C56        C1113   1.482       .  S
C57         C370   1.501       .  S
C58          C83   1.481   1_565  S
H61         C521   1.082       .  S
In69         O71   2.257       .  S
In69         O72   2.240       .  S
In69         O80   2.239       .  S
In69         O74   2.275       .  S
In69         O76   2.292       .  S
In69         O77   2.285       .  S
In69         O78   2.261       .  S
In69         O81   2.269       .  S
C70         C152   1.500       .  S
C70          O76   1.261       .  A
C70          O78   1.256       .  A
O71          C79   1.260       .  A
O72          C79   1.263       .  A
C73         C462   1.480       .  S
C73          O80   1.261       .  A
C73          O74   1.264       .  A
C75        C1059   1.482       .  S
C75          O77   1.262       .  A
C75          O81   1.259       .  A
C79         C339   1.492       .  S
In82         O84   2.278       .  S
In82         O85   2.314       .  S
In82         O93   2.233       .  S
In82         O87   2.258       .  S
In82         O89   2.285       .  S
In82         O90   2.277       .  S
In82         O91   2.238       .  S
In82         O94   2.251       .  S
C83          O89   1.264       .  A
C83          O91   1.262       .  A
O84          C92   1.255       .  A
O85          C92   1.260       .  A
C86         C453   1.487       .  S
C86          O93   1.262       .  A
C86          O87   1.265       .  A
C88         C246   1.502       .  S
C88          O90   1.265       .  A
C88          O94   1.259       .  A
C92         C966   1.504       .  S
N95         C100   1.340       .  A
N95          C99   1.338       .  A
N95         H127   1.045       .  S
N96         C103   1.360       .  A
N96         C104   1.351       .  A
N97         C102   1.362       .  A
N97         C101   1.355       .  A
N97         H128   1.041       .  S
N98         C105   1.339       .  A
N98         C106   1.339       .  A
C99         C115   1.382       .  A
C99        C1051   1.385       .  A
C100        C116   1.382       .  A
C100       C1052   1.385       .  A
C101        C109   1.397       .  A
C101        C118   1.440       .  A
C102        C117   1.418       .  A
C102        C110   1.378       .  A
C103        C115   1.415   1_455  A
C103        C111   1.377       .  A
C104        C118   1.445       .  A
C104        C112   1.401       .  A
C105        C116   1.384   1_455  A
C105        C585   1.387   1_554  A
C106        C117   1.381       .  A
C106        C586   1.382   1_554  A
C107        C108   1.368       .  A
C107       C1043   1.383       .  A
C107        H119   1.082       .  S
C108       C1044   1.386       .  A
C108        H120   1.081   1_554  S
C109        C110   1.389       .  A
C109        H121   1.081       .  S
C110        H122   1.082       .  S
C111        C112   1.389       .  A
C111        H123   1.082   1_455  S
C112        H124   1.079       .  S
C113        C114   1.371       .  A
C113        C577   1.386       .  A
C113        H125   1.082   1_455  S
C114        C578   1.383       .  A
C114        H126   1.082       .  S
C115       C1019   1.481       .  S
C116       C1093   1.524       .  S
C117        C649   1.481   1_554  S
C118        C263   1.505       .  S
N129        C134   1.352       .  A
N129        C133   1.349       .  A
N129        H161   1.039       .  S
N130        C137   1.344       .  A
N130        C138   1.340       .  A
N131        C136   1.353       .  A
N131        C135   1.368       .  A
N131        H162   1.036       .  S
N132        C139   1.361       .  A
N132        C140   1.353       .  A
C133       C1085   1.382       .  A
C133        C621   1.397       .  A
C134        C150   1.430       .  A
C134       C1086   1.394       .  A
C135        C143   1.380       .  A
C135        C624   1.431       .  A
C136        C151   1.438       .  A
C136        C144   1.395       .  A
C137        C149   1.400       .  A
C137        C145   1.384       .  A
C138        C152   1.423       .  A
C138        C146   1.391       .  A
C139        C147   1.378       .  A
C139        C150   1.428       .  A
C140        C148   1.395       .  A
C140        C151   1.440       .  A
C141        C142   1.375       .  A
C141       C1077   1.380   1_455  A
C141        H153   1.083       .  S
C142       C1078   1.396       .  A
C142        H154   1.079       .  S
C143        C144   1.382       .  A
C143        H627   1.082       .  S
C144        H156   1.082       .  S
C145        C146   1.378       .  A
C145        H157   1.083       .  S
C146        H158   1.079       .  S
C147        C148   1.385       .  A
C147        H159   1.082       .  S
C148        H160   1.079       .  S
C149        C605   1.396       .  A
C149       C1060   1.524       .  S
C150       C1130   1.503       .  S
C151        C361   1.501       .  S
C152        C607   1.434       .  A
H155        C615   1.082       .  S
In163       O165   2.267       .  S
In163       O166   2.242       .  S
In163       O174   2.210       .  S
In163       O168   2.255       .  S
In163       O170   2.302       .  S
In163       O171   2.279       .  S
In163       O172   2.248       .  S
In163       O175   2.263       .  S
C164        O170   1.263       .  A
C164        O172   1.258       .  A
O165        C173   1.263       .  A
O166        C173   1.265       .  A
C167        C429   1.484       .  S
C167        O174   1.259       .  A
C167        O168   1.267       .  A
C169       C1000   1.478       .  S
C169        O171   1.262       .  A
C169        O175   1.257       .  A
C173        C211   1.507       .  S
In176       O178   2.263       .  S
In176       O179   2.308       .  S
In176       O187   2.221       .  S
In176       O181   2.241       .  S
In176       O183   2.294       .  S
In176       O184   2.258       .  S
In176       O185   2.233       .  S
In176       O188   2.236       .  S
C177        C589   1.485       .  S
C177        O183   1.264       .  A
C177        O185   1.262       .  A
O178        C186   1.255       .  A
O179        C186   1.261       .  A
C180        C438   1.469       .  S
C180        O187   1.262       .  A
C180        O181   1.266       .  A
C182        C306   1.492       .  S
C182        O184   1.265       .  A
C182        O188   1.261       .  A
C186       C1094   1.500       .  S
N189        C194   1.349       .  A
N189        C193   1.347       .  A
N189        H221   1.039       .  S
N190        C197   1.344       .  A
N190        C198   1.340       .  A
N191        C196   1.354       .  A
N191        C195   1.370       .  A
N191        H222   1.036       .  S
N192        C199   1.362       .  A
N192        C200   1.352       .  A
C193        C201   1.380       .  A
C193        C209   1.393       .  A
C194        C210   1.430       .  A
C194        C202   1.396       .  A
C195        C203   1.380       .  A
C195        C212   1.435       .  A
C196        C211   1.440       .  A
C196        C204   1.394       .  A
C197        C209   1.395       .  A
C197        C205   1.382       .  A
C198        C212   1.422       .  A
C198        C206   1.393       .  A
C199        C207   1.380       .  A
C199        C210   1.432       .  A
C200        C208   1.394       .  A
C200        C211   1.441       .  A
C201        C202   1.374       .  A
C201        H213   1.083       .  S
C202        H214   1.079       .  S
C203        C204   1.383       .  A
C203        H215   1.082   1_565  S
C204        H216   1.082       .  S
C205        C206   1.376       .  A
C205        H217   1.083       .  S
C206        H218   1.078       .  S
C207        C208   1.386       .  A
C207        H219   1.082       .  S
C208        H220   1.080       .  S
C209        C244   1.524       .  S
C210        C374   1.502       .  S
C212        C271   1.503       .  S
N223        C228   1.339       .  A
N223        C227   1.337   1_565  A
N223        H255   1.045       .  S
N224        C231   1.361       .  A
N224        C232   1.351       .  A
N225        C230   1.363   1_545  A
N225        C229   1.355       .  A
N225        H256   1.041       .  S
N226        C233   1.340       .  A
N226        C234   1.340       .  A
C227        C235   1.384       .  A
C227        C243   1.381       .  A
C228        C244   1.381       .  A
C228        C236   1.386   1_565  A
C229        C237   1.397   1_545  A
C229        C246   1.441       .  A
C230        C245   1.420       .  A
C230        C238   1.379       .  A
C231        C243   1.416       .  A
C231        C239   1.377       .  A
C232        C246   1.444       .  A
C232        C240   1.399       .  A
C233        C241   1.387       .  A
C233        C244   1.386       .  A
C234        C242   1.382       .  A
C234        C245   1.383       .  A
C235        C236   1.371       .  A
C235        H247   1.082       .  S
C236        H248   1.081       .  S
C237        C238   1.391       .  A
C237        H249   1.081       .  S
C238        H250   1.082       .  S
C239        C240   1.388       .  A
C239        H251   1.082       .  S
C240        H252   1.080       .  S
C241        C242   1.371       .  A
C241        H253   1.081       .  S
C242        H254   1.082   1_565  S
C243        C276   1.481       .  S
C245        C365   1.486       .  S
In257       O259   2.218       .  S
In257       O260   2.361       .  S
In257       O268   2.225       .  S
In257       O262   2.255       .  S
In257       O264   2.270       .  S
In257       O265   2.270       .  S
In257       O266   2.251       .  S
In257       O269   2.248       .  S
C258        C305   1.481       .  S
C258        O264   1.262       .  A
C258        O266   1.265       .  A
O259        C267   1.254       .  A
O260        C267   1.271       .  A
C261        C414   1.479       .  S
C261        O268   1.261       .  A
C261        O262   1.264       .  A
C263        O265   1.267       .  A
C263        O269   1.258       .  A
C267        C338   1.530       .  S
In270       O272   2.258       .  S
In270       O273   2.228       .  S
In270       O281   2.218       .  S
In270       O275   2.262       .  S
In270       O277   2.298       .  S
In270       O278   2.288       .  S
In270       O279   2.252   1_545  S
In270       O282   2.262       .  S
C271        O277   1.263   1_565  A
C271        O279   1.259       .  A
O272        C280   1.262       .  A
O273        C280   1.266       .  A
C274        C405   1.474       .  S
C274        O281   1.259       .  A
C274        O275   1.266       .  A
C276        O278   1.262       .  A
C276        O282   1.258       .  A
N283        C288   1.343       .  A
N283        C287   1.347       .  A
N283        H315   1.045       .  S
N284        C291   1.356       .  A
N284        C292   1.347       .  A
N285        C290   1.355       .  A
N285        C289   1.350       .  A
N285        H316   1.041       .  S
N286        C293   1.345       .  A
N286        C294   1.349       .  A
C287        C295   1.378       .  A
C287        C303   1.383       .  A
C288        C304   1.392       .  A
C288        C296   1.384       .  A
C289        C297   1.400       .  A
C289        C306   1.437       .  A
C290        C305   1.410       .  A
C290        C298   1.378       .  A
C291        C303   1.412       .  A
C291        C299   1.379       .  A
C292        C306   1.435       .  A
C292        C300   1.396       .  A
C293        C301   1.388       .  A
C293        C304   1.398       .  A
C294        C302   1.375       .  A
C294        C305   1.386       .  A
C295        C296   1.350       .  A
C295        H307   1.080       .  S
C296        H308   1.073       .  S
C297        C298   1.393       .  A
C297        H309   1.080       .  S
C298        H310   1.082       .  S
C299        C300   1.391       .  A
C299        H311   1.082       .  S
C300        H312   1.082       .  S
C301        C302   1.356       .  A
C301        H313   1.075       .  S
C302        H314   1.082       .  S
C303        C357   1.484       .  S
C304        C337   1.527       .  S
N317        C322   1.362       .  A
N317        C321   1.346       .  A
N317        H349   1.022       .  S
N318        C325   1.347       .  A
N318        C326   1.351       .  A
N319        C324   1.349       .  A
N319        C323   1.364       .  A
N319        H350   1.022       .  S
N320        C327   1.353       .  A
N320        C328   1.342       .  A
C321        C329   1.380       .  A
C321        C337   1.410       .  A
C322        C338   1.452       .  A
C322        C330   1.394       .  A
C323        C331   1.383       .  A
C323        C340   1.433       .  A
C324        C339   1.433       .  A
C324        C332   1.391       .  A
C325        C337   1.412       .  A
C325        C333   1.385       .  A
C326        C340   1.435       .  A
C326        C334   1.391       .  A
C327        C335   1.385       .  A
C327        C338   1.431       .  A
C328        C336   1.392       .  A
C328        C339   1.431       .  A
C329        C330   1.377       .  A
C329        H341   1.082       .  S
C330        H342   1.079       .  S
C331        C332   1.387       .  A
C331        H343   1.082       .  S
C332        H344   1.082       .  S
C333        C334   1.378       .  A
C333        H345   1.083       .  S
C334        H346   1.078       .  S
C335        C336   1.393       .  A
C335        H347   1.082       .  S
C336        H348   1.082       .  S
C340        C352   1.520       .  S
In351       O353   2.273       .  S
In351       O354   2.243       .  S
In351       O362   2.219       .  S
In351       O356   2.283       .  S
In351       O358   2.324       .  S
In351       O359   2.276       .  S
In351       O360   2.269       .  S
In351       O363   2.276       .  S
C352        O358   1.265       .  A
C352        O360   1.257       .  A
O353        C361   1.259       .  A
O354        C361   1.261       .  A
C355        C381   1.484       .  S
C355        O362   1.257       .  A
C355        O356   1.266       .  A
C357        O359   1.264       .  A
C357        O363   1.261       .  A
In364       O366   2.264       .  S
In364       O367   2.314       .  S
In364       O375   2.243       .  S
In364       O369   2.268       .  S
In364       O371   2.300       .  S
In364       O372   2.280       .  S
In364       O373   2.234       .  S
In364       O376   2.243       .  S
C365        O371   1.264       .  A
C365        O373   1.261       .  A
O366        C374   1.254       .  A
O367        C374   1.261       .  A
C368        C390   1.491       .  S
C368        O375   1.263       .  A
C368        O369   1.267       .  A
C370        O372   1.265       .  A
C370        O376   1.260       .  A
C377        C378   1.401       .  A
C377        C382   1.402       .  A
C377        H387   1.083       .  S
C378        C379   1.416       .  A
C378        C383   1.487       .  S
C379        C380   1.407       .  A
C379        S384   1.807       .  S
C380        C381   1.405       .  A
C380        H385   1.084       .  S
C381        C382   1.415       .  A
C382        S386   1.810       .  S
C383        C388   1.409       .  A
C383        C392   1.402       .  A
S384        H400   1.402       .  S
S386        H397   1.407       .  S
C388        C389   1.408       .  A
C388        S393   1.806       .  S
C389        C390   1.408       .  A
C389        H394   1.082       .  S
C390        C391   1.418       .  A
C391        C392   1.403       .  A
C391        S395   1.802       .  S
C392        H396   1.084       .  S
S393        H398   1.407       .  S
S395        H399   1.408       .  S
C401        C402   1.401       .  A
C401        C406   1.399       .  A
C401        H411   1.084       .  S
C402        C403   1.414       .  A
C402        C407   1.479       .  S
C403        C404   1.401       .  A
C403        S408   1.805       .  S
C404        C405   1.402       .  A
C404        H409   1.084       .  S
C405        C406   1.414       .  A
C406        S410   1.806       .  S
C407        C412   1.407       .  A
C407        C416   1.404       .  A
S408        H424   1.404       .  S
S410        H421   1.407       .  S
C412        C413   1.398       .  A
C412        S417   1.808       .  S
C413        C414   1.404       .  A
C413        H418   1.083       .  S
C414        C415   1.415       .  A
C415        C416   1.404       .  A
C415        S419   1.802       .  S
C416        H420   1.084       .  S
S417        H422   1.407       .  S
S419        H423   1.407       .  S
C425        C426   1.398       .  A
C425        C430   1.399       .  A
C425        H435   1.083       .  S
C426        C427   1.408       .  A
C426        C431   1.475       .  S
C427        C428   1.400       .  A
C427        S432   1.802       .  S
C428        C429   1.407       .  A
C428        H433   1.083       .  S
C429        C430   1.421       .  A
C430        S434   1.811       .  S
C431        C436   1.409       .  A
C431        C440   1.402       .  A
S432        H448   1.406       .  S
S434        H445   1.407       .  S
C436        C437   1.400       .  A
C436        S441   1.807       .  S
C437        C438   1.402       .  A
C437        H442   1.083       .  S
C438        C439   1.411       .  A
C439        C440   1.401       .  A
C439        S443   1.807       .  S
C440        H444   1.083       .  S
S441        H446   1.407       .  S
S443        H447   1.407       .  S
C449        C450   1.403       .  A
C449        C454   1.404       .  A
C449        H459   1.083       .  S
C450        C451   1.413       .  A
C450        C455   1.491       .  S
C451        C452   1.403       .  A
C451        S456   1.802       .  S
C452        C453   1.406       .  A
C452        H457   1.084       .  S
C453        C454   1.415       .  A
C454        S458   1.808       .  S
C455        C460   1.413       .  A
C455        C464   1.403       .  A
S456        H472   1.407       .  S
S458        H469   1.407       .  S
C460        C461   1.411       .  A
C460        S465   1.805       .  S
C461        C462   1.405       .  A
C461        H466   1.083       .  S
C462        C463   1.412       .  A
C463        C464   1.398       .  A
C463        S467   1.803       .  S
C464        H468   1.084       .  S
S465        H470   1.407       .  S
S467        H471   1.407       .  S
N473        C478   1.351   1_455  A
N473        C477   1.347       .  A
N473        H505   1.039       .  S
N475        C480   1.351       .  A
N475        C479   1.369       .  A
N475        H506   1.034       .  S
N476        C483   1.363       .  A
N476        C484   1.353       .  A
C477       C1429   1.381   1_455  A
C477        C493   1.396       .  A
C478        C494   1.431       .  A
C478       C1430   1.396       .  A
C479        C487   1.380   1_545  A
C480        C495   1.437       .  A
C480        C488   1.394   1_545  A
C481        C489   1.383       .  A
C482        C496   1.424       .  A
C482        C490   1.391       .  A
C483        C491   1.381       .  A
C483        C494   1.435   1_455  A
C484        C492   1.393       .  A
C484        C495   1.441       .  A
C485       C1421   1.380       .  A
C485        C486   1.375       .  A
C485        H497   1.083       .  S
C486       C1422   1.396       .  A
C486        H498   1.078       .  S
C487        C488   1.384       .  A
C487        H499   1.082       .  S
C488        H500   1.082       .  S
C489        C490   1.378       .  A
C489        H501   1.083       .  S
C490        H502   1.079       .  S
C491        C492   1.387       .  A
C491        H503   1.082   1_455  S
C492        H504   1.080       .  S
C493       C1471   1.523       .  S
C494       C1508   1.508       .  S
C495        C752   1.503       .  S
C496        C636   1.505   1_545  S
N507        C512   1.338       .  A
N507        C511   1.340   1_565  A
N507        H539   1.045   1_565  S
N508        C515   1.338       .  A
N508        C516   1.340       .  A
N509        C514   1.352       .  A
N509        H540   1.042       .  S
N510        C517   1.360       .  A
N510        C518   1.350       .  A
C511       C1463   1.384   1_546  A
C512        C528   1.381       .  A
C512       C1464   1.384       .  A
C513        C530   1.425       .  A
C514        C529   1.437       .  A
C514        C522   1.397       .  A
C515        C527   1.385       .  A
C515        C523   1.388   1_545  A
C516        C530   1.379   1_545  A
C516        C524   1.381   1_545  A
C517        C525   1.376       .  A
C517        C528   1.411       .  A
C518        C526   1.399       .  A
C518        C529   1.439       .  A
C519       C1455   1.384   1_554  A
C519        C520   1.371   1_554  A
C519        H531   1.081       .  S
C520       C1456   1.385       .  A
C520        H532   1.082       .  S
C521        C522   1.390       .  A
C522        H534   1.081       .  S
C523        C524   1.371       .  A
C523        H535   1.081       .  S
C524        H536   1.082       .  S
C525        C526   1.385       .  A
C525        H537   1.082       .  S
C526        H538   1.080       .  S
C527       C1437   1.523       .  S
C528       C1585   1.479       .  S
C529        C842   1.493       .  S
C530        C555   1.494   1_565  S
In541       O543   2.268       .  S
In541       O544   2.221       .  S
In541       O552   2.230       .  S
In541       O546   2.272       .  S
In541       O548   2.299       .  S
In541       O549   2.287       .  S
In541       O550   2.257       .  S
In541       O553   2.274       .  S
C542        C624   1.503       .  S
C542        O548   1.263       .  A
C542        O550   1.257       .  A
O543        C551   1.264       .  A
O544        C551   1.265       .  A
C545        C934   1.478       .  S
C545        O552   1.259       .  A
C545        O546   1.266       .  A
C547       C1531   1.483       .  S
C547        O549   1.260       .  A
C547        O553   1.258       .  A
C551        C811   1.494       .  S
In554       O556   2.259       .  S
In554       O557   2.318       .  S
In554       O565   2.231       .  S
In554       O559   2.259       .  S
In554       O561   2.306       .  S
In554       O562   2.290       .  S
In554       O563   2.253       .  S
In554       O566   2.255       .  S
C555        O561   1.264       .  A
C555        O563   1.263       .  A
O556        C564   1.255       .  A
O557        C564   1.264       .  A
C558        C925   1.493       .  S
C558        O565   1.262       .  A
C558        O559   1.268       .  A
C560        C718   1.508       .  S
C560        O562   1.266       .  A
C560        O566   1.260       .  A
C564       C1438   1.506       .  S
N567        C572   1.341       .  A
N567        C571   1.338       .  A
N567        H599   1.045       .  S
N568        C575   1.361       .  A
N568        C576   1.353       .  A
N569        C574   1.362       .  A
N569        C573   1.355       .  A
N569        H600   1.041       .  S
N570        C577   1.340       .  A
N570        C578   1.340       .  A
C571       C1523   1.384       .  A
C571        C587   1.381       .  A
C572        C588   1.383       .  A
C572       C1524   1.386       .  A
C573        C581   1.397       .  A
C573        C590   1.442       .  A
C574        C589   1.420       .  A
C574        C582   1.379       .  A
C575        C587   1.418   1_455  A
C575        C583   1.377       .  A
C576        C590   1.446       .  A
C576        C584   1.399       .  A
C577        C588   1.384   1_455  A
C578        C589   1.384       .  A
C579       C1515   1.384       .  A
C579        C580   1.367       .  A
C579        H591   1.082       .  S
C580       C1516   1.385       .  A
C580        H592   1.081       .  S
C581        C582   1.392       .  A
C581        H593   1.081       .  S
C582        H594   1.082       .  S
C583        C584   1.389       .  A
C583        H595   1.082   1_455  S
C584        H596   1.080       .  S
C585        C586   1.372       .  A
C585        H597   1.081   1_455  S
C586        H598   1.082       .  S
C587       C1491   1.484       .  S
C588       C1565   1.523       .  S
C590        C735   1.508       .  S
N601        C606   1.351       .  A
N601        C605   1.348   1_556  A
N601        H633   1.039       .  S
N602        C609   1.346       .  A
N602        C610   1.342       .  A
N603        C608   1.351       .  A
N603        C607   1.370   1_556  A
N603        H634   1.033       .  S
N604        C611   1.360       .  A
N604        C612   1.351       .  A
C605       C1557   1.381       .  A
C606        C622   1.431       .  A
C606       C1558   1.395       .  A
C607        C615   1.382   1_554  A
C608        C623   1.434       .  A
C608        C616   1.392       .  A
C609        C621   1.400       .  A
C609        C617   1.383       .  A
C610        C624   1.424       .  A
C610        C618   1.391       .  A
C611        C619   1.382       .  A
C611        C622   1.431       .  A
C612        C620   1.392       .  A
C612        C623   1.435       .  A
C613       C1549   1.380   1_455  A
C613        C614   1.375   1_554  A
C613        H625   1.083       .  S
C614       C1550   1.395       .  A
C614        H626   1.079       .  S
C615        C616   1.382       .  A
C616        H628   1.082       .  S
C617        C618   1.378       .  A
C617        H629   1.083       .  S
C618        H630   1.079       .  S
C619        C620   1.387       .  A
C619        H631   1.082       .  S
C620        H632   1.081       .  S
C621       C1532   1.519       .  S
C622       C1602   1.502       .  S
C623        C833   1.502       .  S
In635       O637   2.269       .  S
In635       O638   2.251       .  S
In635       O646   2.226       .  S
In635       O640   2.259       .  S
In635       O642   2.295       .  S
In635       O643   2.286       .  S
In635       O644   2.262       .  S
In635       O647   2.257       .  S
C636        O642   1.262       .  A
C636        O644   1.258       .  A
O637        C645   1.261       .  A
O638        C645   1.265       .  A
C639        C901   1.472       .  S
C639        O646   1.261       .  A
C639        O640   1.266       .  A
C641       C1472   1.481       .  S
C641        O643   1.263       .  A
C641        O647   1.257       .  A
C645        C683   1.507       .  S
In648       O650   2.270       .  S
In648       O651   2.307       .  S
In648       O659   2.232       .  S
In648       O653   2.258       .  S
In648       O655   2.283       .  S
In648       O656   2.275       .  S
In648       O657   2.256       .  S
In648       O660   2.241       .  S
C649        O655   1.262       .  A
C649        O657   1.261       .  A
O650        C658   1.255       .  A
O651        C658   1.260       .  A
C652        C910   1.485       .  S
C652        O659   1.262       .  A
C652        O653   1.266       .  A
C654        C778   1.501       .  S
C654        O656   1.264       .  A
C654        O660   1.261       .  A
C658       C1566   1.500       .  S
N661        C666   1.349       .  A
N661        C665   1.348       .  A
N661        H693   1.039       .  S
N662        C669   1.345       .  A
N662        C670   1.340       .  A
N663        C668   1.354       .  A
N663        C667   1.370       .  A
N663        H694   1.035       .  S
N664        C671   1.362       .  A
N664        C672   1.354       .  A
C665        C673   1.381       .  A
C665        C681   1.394       .  A
C666        C682   1.430       .  A
C666        C674   1.397       .  A
C667        C675   1.381       .  A
C667        C684   1.435       .  A
C668        C683   1.439       .  A
C668        C676   1.394       .  A
C669        C681   1.396       .  A
C669        C677   1.381       .  A
C670        C684   1.425       .  A
C670        C678   1.394       .  A
C671        C679   1.380       .  A
C671        C682   1.432       .  A
C672        C680   1.394       .  A
C672        C683   1.442       .  A
C673        C674   1.374       .  A
C673        H685   1.083       .  S
C674        H686   1.079       .  S
C675        C676   1.383       .  A
C675        H687   1.082       .  S
C676        H688   1.082       .  S
C677        C678   1.376       .  A
C677        H689   1.083       .  S
C678        H690   1.077       .  S
C679        C680   1.385       .  A
C679        H691   1.082       .  S
C680        H692   1.080       .  S
C681        C716   1.521       .  S
C682        C846   1.501       .  S
C684        C743   1.504       .  S
N695        C700   1.340       .  A
N695        C699   1.339   1_565  A
N695        H727   1.046       .  S
N696        C703   1.361       .  A
N696        C704   1.353       .  A
N697        C702   1.360   1_545  A
N697        C701   1.355       .  A
N697        H728   1.040       .  S
N698        C705   1.340       .  A
N698        C706   1.340       .  A
C699        C707   1.385       .  A
C699        C715   1.383       .  A
C700        C716   1.381       .  A
C700        C708   1.384       .  A
C701        C709   1.398   1_545  A
C701        C718   1.443       .  A
C702        C717   1.418       .  A
C702        C710   1.379       .  A
C703        C715   1.419       .  A
C703        C711   1.377       .  A
C704        C718   1.446       .  A
C704        C712   1.398       .  A
C705        C713   1.387       .  A
C705        C716   1.384       .  A
C706        C714   1.381       .  A
C706        C717   1.380       .  A
C707        C708   1.369   1_545  A
C707        H719   1.082       .  S
C708        H720   1.081       .  S
C709        C710   1.393       .  A
C709        H721   1.081       .  S
C710        H722   1.082       .  S
C711        C712   1.388       .  A
C711        H723   1.082       .  S
C712        H724   1.080       .  S
C713        C714   1.370       .  A
C713        H725   1.082       .  S
C714        H726   1.082       .  S
C715        C748   1.485       .  S
C717        C837   1.479       .  S
In729       O731   2.223       .  S
In729       O732   2.366       .  S
In729       O740   2.239       .  S
In729       O734   2.262       .  S
In729       O736   2.283       .  S
In729       O737   2.280       .  S
In729       O738   2.252       .  S
In729       O741   2.257       .  S
C730        C777   1.489       .  S
C730        O736   1.262       .  A
C730        O738   1.266       .  A
O731        C739   1.254       .  A
O732        C739   1.270       .  A
C733        C886   1.483       .  S
C733        O740   1.261       .  A
C733        O734   1.263       .  A
C735        O737   1.266       .  A
C735        O741   1.260       .  A
C739        C810   1.534       .  S
In742       O744   2.259       .  S
In742       O745   2.244       .  S
In742       O753   2.211       .  S
In742       O747   2.269       .  S
In742       O749   2.302       .  S
In742       O750   2.292       .  S
In742       O751   2.244   1_545  S
In742       O754   2.265       .  S
C743        O749   1.264   1_565  A
C743        O751   1.257       .  A
O744        C752   1.262       .  A
O745        C752   1.267       .  A
C746        C877   1.477       .  S
C746        O753   1.260       .  A
C746        O747   1.267       .  A
C748        O750   1.263       .  A
C748        O754   1.258       .  A
N755        C760   1.344       .  A
N755        C759   1.347       .  A
N755        H787   1.045       .  S
N756        C763   1.358       .  A
N756        C764   1.349       .  A
N757        C762   1.358       .  A
N757        C761   1.353       .  A
N757        H788   1.042       .  S
N758        C765   1.345       .  A
N758        C766   1.349       .  A
C759        C767   1.377       .  A
C759        C775   1.382       .  A
C760        C776   1.393       .  A
C760        C768   1.386       .  A
C761        C769   1.398       .  A
C761        C778   1.439       .  A
C762        C777   1.416       .  A
C762        C770   1.379       .  A
C763        C775   1.411       .  A
C763        C771   1.378       .  A
C764        C778   1.435       .  A
C764        C772   1.396       .  A
C765        C773   1.387       .  A
C765        C776   1.398       .  A
C766        C774   1.377       .  A
C766        C777   1.389       .  A
C767        C768   1.351       .  A
C767        H779   1.081       .  S
C768        H780   1.074       .  S
C769        C770   1.394       .  A
C769        H781   1.080       .  S
C770        H782   1.082       .  S
C771        C772   1.388       .  A
C771        H783   1.082       .  S
C772        H784   1.082       .  S
C773        C774   1.359       .  A
C773        H785   1.075       .  S
C774        H786   1.082       .  S
C775        C829   1.486       .  S
C776        C809   1.527       .  S
N789        C794   1.361       .  A
N789        C793   1.346       .  A
N789        H821   1.030       .  S
N790        C797   1.347       .  A
N790        C798   1.349       .  A
N791        C796   1.350       .  A
N791        C795   1.365       .  A
N791        H822   1.030       .  S
N792        C799   1.355       .  A
N792        C800   1.344       .  A
C793        C801   1.380       .  A
C793        C809   1.409       .  A
C794        C810   1.452       .  A
C794        C802   1.395       .  A
C795        C803   1.382       .  A
C795        C812   1.432       .  A
C796        C811   1.434       .  A
C796        C804   1.392       .  A
C797        C809   1.410       .  A
C797        C805   1.385       .  A
C798        C812   1.431       .  A
C798        C806   1.391       .  A
C799        C807   1.386       .  A
C799        C810   1.436       .  A
C800        C808   1.389       .  A
C800        C811   1.431       .  A
C801        C802   1.378       .  A
C801        H813   1.082       .  S
C802        H814   1.080       .  S
C803        C804   1.384       .  A
C803        H815   1.082       .  S
C804        H816   1.082       .  S
C805        C806   1.378       .  A
C805        H817   1.083       .  S
C806        H818   1.078       .  S
C807        C808   1.393       .  A
C807        H819   1.082       .  S
C808        H820   1.082       .  S
C812        C824   1.515       .  S
In823       O825   2.288       .  S
In823       O826   2.233       .  S
In823       O834   2.229       .  S
In823       O828   2.272       .  S
In823       O830   2.312       .  S
In823       O831   2.276       .  S
In823       O832   2.273       .  S
In823       O835   2.291       .  S
C824        O830   1.262       .  A
C824        O832   1.257       .  A
O825        C833   1.263       .  A
O826        C833   1.261       .  A
C827        C853   1.486       .  S
C827        O834   1.260       .  A
C827        O828   1.265       .  A
C829        O831   1.261       .  A
C829        O835   1.259       .  A
In836       O838   2.271       .  S
In836       O839   2.309       .  S
In836       O847   2.234       .  S
In836       O841   2.247       .  S
In836       O843   2.282       .  S
In836       O844   2.264       .  S
In836       O845   2.240       .  S
In836       O848   2.227       .  S
C837        O843   1.264       .  A
C837        O845   1.261       .  A
O838        C846   1.255       .  A
O839        C846   1.260       .  A
C840        C862   1.477       .  S
C840        O847   1.262       .  A
C840        O841   1.265       .  A
C842        O844   1.266       .  A
C842        O848   1.259       .  A
C849        C850   1.400       .  A
C849        C854   1.401       .  A
C849        H859   1.083       .  S
C850        C851   1.413       .  A
C850        C855   1.481       .  S
C851        C852   1.406       .  A
C851        S856   1.805       .  S
C852        C853   1.406       .  A
C852        H857   1.084       .  S
C853        C854   1.416       .  A
C854        S858   1.809       .  S
C855        C860   1.408       .  A
C855        C864   1.402       .  A
S856        H872   1.403       .  S
S858        H869   1.407       .  S
C860        C861   1.403       .  A
C860        S865   1.805       .  S
C861        C862   1.404       .  A
C861        H866   1.083       .  S
C862        C863   1.414       .  A
C863        C864   1.401       .  A
C863        S867   1.804       .  S
C864        H868   1.084       .  S
S865        H870   1.407       .  S
S867        H871   1.406       .  S
C873        C874   1.402       .  A
C873        C878   1.397       .  A
C873        H883   1.084       .  S
C874        C875   1.416       .  A
C874        C879   1.484       .  S
C875        C876   1.405       .  A
C875        S880   1.805       .  S
C876        C877   1.404       .  A
C876        H881   1.084       .  S
C877        C878   1.413       .  A
C878        S882   1.805       .  S
C879        C884   1.410       .  A
C879        C888   1.404       .  A
S880        H896   1.404       .  S
S882        H893   1.408       .  S
C884        C885   1.400       .  A
C884        S889   1.808       .  S
C885        C886   1.404       .  A
C885        H890   1.083       .  S
C886        C887   1.415       .  A
C887        C888   1.405       .  A
C887        S891   1.802       .  S
C888        H892   1.084       .  S
S889        H894   1.407       .  S
S891        H895   1.407       .  S
C897        C898   1.405       .  A
C897        C902   1.403       .  A
C897        H907   1.083       .  S
C898        C899   1.415       .  A
C898        C903   1.487       .  S
C899        C900   1.402       .  A
C899        S904   1.803       .  S
C900        C901   1.400       .  A
C900        H905   1.084       .  S
C901        C902   1.409       .  A
C902        S906   1.807       .  S
C903        C908   1.409       .  A
C903        C912   1.403       .  A
S904        H920   1.406       .  S
S906        H917   1.407       .  S
C908        C909   1.405       .  A
C908        S913   1.805   1_556  S
C909        C910   1.406       .  A
C909        H914   1.083       .  S
C910        C911   1.415       .  A
C911        C912   1.404       .  A
C911        S915   1.808       .  S
C912        H916   1.083       .  S
S913        H918   1.407       .  S
S915        H919   1.407       .  S
C921        C922   1.404       .  A
C921        C926   1.403       .  A
C921        H931   1.083       .  S
C922        C923   1.414       .  A
C922        C927   1.493       .  S
C923        C924   1.403       .  A
C923        S928   1.804       .  S
C924        C925   1.407       .  A
C924        H929   1.083       .  S
C925        C926   1.419       .  A
C926        S930   1.810       .  S
C927        C932   1.414       .  A
C927        C936   1.406       .  A
S928        H944   1.406       .  S
S930        H941   1.407       .  S
C932        C933   1.404       .  A
C932        S937   1.808       .  S
C933        C934   1.403       .  A
C933        H938   1.083       .  S
C934        C935   1.413       .  A
C935        C936   1.403       .  A
C935        S939   1.803       .  S
C936        H940   1.084       .  S
S937        H942   1.407       .  S
S939        H943   1.406       .  S
N945        C950   1.351       .  A
N945        C949   1.348       .  A
N945        H977   1.038       .  S
N946       C1425   1.345       .  A
N946       C1426   1.342       .  A
N947        C952   1.353       .  A
N947        C951   1.371       .  A
N947        H978   1.033       .  S
N948        C955   1.363       .  A
N948        C956   1.353       .  A
C949        C965   1.396   1_554  A
C950        C966   1.431       .  A
C951        C959   1.381   1_545  A
C951       C1440   1.436   1_554  A
C952        C967   1.438       .  A
C952        C960   1.393   1_545  A
C953       N1418   1.345       .  A
C953       C1437   1.397       .  A
C953        C961   1.383       .  A
C954       N1418   1.341       .  A
C954        C968   1.421       .  A
C954        C962   1.391       .  A
C955        C963   1.380       .  A
C955        C966   1.433       .  A
C956        C964   1.393       .  A
C956        C967   1.440       .  A
C957        C958   1.375       .  A
C957        H969   1.083   1_554  S
C958        H970   1.079       .  S
C959        C960   1.382       .  A
C959        H971   1.082       .  S
C960        H972   1.082       .  S
C961        C962   1.377       .  A
C961        H973   1.083       .  S
C962        H974   1.078       .  S
C963        C964   1.385       .  A
C963        H975   1.082       .  S
C964        H976   1.080       .  S
C965       C1425   1.399       .  A
C967       C1224   1.505       .  S
C968       C1423   1.431       .  A
C968       C1108   1.500   1_545  S
N979        C984   1.339       .  A
N979        C983   1.341   1_565  A
N979       H1011   1.045   1_465  S
N980        C987   1.338       .  A
N980        C988   1.339   1_545  A
N981        C986   1.354       .  A
N981       C1457   1.362       .  A
N981       H1012   1.041       .  S
N982        C989   1.360       .  A
N982        C990   1.350       .  A
C983       C1471   1.383       .  A
C984       C1000   1.380       .  A
C985       N1453   1.365       .  A
C985       C1465   1.378       .  A
C985       C1002   1.421   1_556  A
C986       C1001   1.440       .  A
C986        C994   1.397       .  A
C987        C999   1.384   1_655  A
C987        C995   1.388       .  A
C988       C1002   1.380       .  A
C988        C996   1.381       .  A
C989        C997   1.376       .  A
C989       C1000   1.410   1_655  A
C990        C998   1.399       .  A
C990       C1001   1.440       .  A
C991        C992   1.368       .  A
C991       H1003   1.081       .  S
C992       H1004   1.082       .  S
C993       C1457   1.379       .  A
C993        C994   1.390       .  A
C993       H1477   1.082   1_565  S
C994       H1006   1.081       .  S
C995        C996   1.371   1_545  A
C995       H1007   1.081   1_545  S
C996       H1008   1.082       .  S
C997        C998   1.384       .  A
C997       H1009   1.082       .  S
C998       H1010   1.080       .  S
C999       C1455   1.379   1_544  A
C1001      C1314   1.497       .  S
C1002      C1027   1.488   1_565  S
H1005      C1465   1.082   1_545  S
In1013     O1015   2.258       .  S
In1013     O1016   2.247       .  S
In1013     O1024   2.233       .  S
In1013     O1018   2.264       .  S
In1013     O1020   2.291       .  S
In1013     O1021   2.288       .  S
In1013     O1022   2.259       .  S
In1013     O1025   2.263       .  S
C1014      C1096   1.498       .  S
C1014      O1020   1.261       .  A
C1014      O1022   1.257       .  A
O1015      C1023   1.262       .  A
O1016      C1023   1.265       .  A
C1017      C1406   1.475       .  S
C1017      O1024   1.261       .  A
C1017      O1018   1.266       .  A
C1019      O1021   1.262       .  A
C1019      O1025   1.256       .  A
C1023      C1283   1.499       .  S
In1026     O1028   2.264       .  S
In1026     O1029   2.318       .  S
In1026     O1037   2.232       .  S
In1026     O1031   2.274       .  S
In1026     O1033   2.297       .  S
In1026     O1034   2.284       .  S
In1026     O1035   2.243       .  S
In1026     O1038   2.248       .  S
C1027      O1033   1.265       .  A
C1027      O1035   1.262       .  A
O1028      C1036   1.254       .  A
O1029      C1036   1.262       .  A
C1030      C1397   1.494       .  S
C1030      O1037   1.262       .  A
C1030      O1031   1.269       .  A
C1032      C1190   1.505       .  S
C1032      O1034   1.266       .  A
C1032      O1038   1.260       .  A
N1039      C1044   1.340       .  A
N1039      C1043   1.337       .  A
N1039      H1071   1.045       .  S
N1040      C1047   1.362       .  A
N1040      C1048   1.352       .  A
N1041      C1046   1.364       .  A
N1041      C1045   1.355       .  A
N1041      H1072   1.042       .  S
N1042      C1049   1.339       .  A
N1042      C1050   1.340       .  A
C1043      C1059   1.378       .  A
C1044      C1060   1.380       .  A
C1045      C1053   1.397       .  A
C1045      C1062   1.441       .  A
C1046      C1061   1.418       .  A
C1046      C1054   1.377       .  A
C1047      C1059   1.416       .  A
C1047      C1055   1.376       .  A
C1048      C1062   1.446       .  A
C1048      C1056   1.400       .  A
C1049      C1529   1.387   1_554  A
C1049      C1060   1.386       .  A
C1050      C1530   1.382   1_554  A
C1050      C1061   1.383       .  A
C1051      C1052   1.371       .  A
C1051      H1063   1.082       .  S
C1052      H1064   1.082   1_554  S
C1053      C1054   1.387       .  A
C1053      H1065   1.081       .  S
C1054      H1066   1.082       .  S
C1055      C1056   1.388       .  A
C1055      H1067   1.082       .  S
C1056      H1068   1.079       .  S
C1057      C1521   1.385       .  A
C1057      C1058   1.368       .  A
C1057      H1069   1.081       .  S
C1058      C1522   1.382       .  A
C1058      H1070   1.082       .  S
C1061      C1593   1.486   1_554  S
C1062      C1207   1.506       .  S
N1073      C1078   1.350   1_655  A
N1073      C1077   1.348       .  A
N1073      H1105   1.039       .  S
N1074      C1081   1.344       .  A
N1074      C1082   1.340       .  A
N1075      C1080   1.353       .  A
N1075      C1079   1.370       .  A
N1075      H1106   1.035       .  S
N1076      C1083   1.360       .  A
N1076      C1084   1.351       .  A
C1077      C1565   1.395       .  A
C1078      C1094   1.430       .  A
C1079      C1087   1.381       .  A
C1079      C1568   1.434       .  A
C1080      C1095   1.437       .  A
C1080      C1088   1.393       .  A
C1081      C1093   1.396       .  A
C1081      C1089   1.383       .  A
C1082      C1096   1.420       .  A
C1082      C1090   1.392       .  A
C1083      C1091   1.380       .  A
C1083      C1094   1.429   1_655  A
C1084      C1092   1.394       .  A
C1084      C1095   1.438       .  A
C1085      C1086   1.376       .  A
C1085      H1097   1.083       .  S
C1086      H1098   1.080       .  S
C1087      C1088   1.381       .  A
C1087      H1571   1.082       .  S
C1088      H1100   1.082       .  S
C1089      C1090   1.376       .  A
C1089      H1101   1.083       .  S
C1090      H1102   1.079       .  S
C1091      C1092   1.386       .  A
C1091      H1103   1.082   1_655  S
C1092      H1104   1.080       .  S
C1093      C1549   1.395       .  A
C1095      C1305   1.504       .  S
C1096      C1551   1.432       .  A
H1099      C1559   1.082       .  S
In1107     O1109   2.270       .  S
In1107     O1110   2.242       .  S
In1107     O1118   2.211       .  S
In1107     O1112   2.256       .  S
In1107     O1114   2.294       .  S
In1107     O1115   2.286       .  S
In1107     O1116   2.251       .  S
In1107     O1119   2.272       .  S
C1108      O1114   1.262       .  A
C1108      O1116   1.258       .  A
O1109      C1117   1.261       .  A
O1110      C1117   1.265       .  A
C1111      C1373   1.479       .  S
C1111      O1118   1.261       .  A
C1111      O1112   1.266       .  A
C1113      O1115   1.263       .  A
C1113      O1119   1.257       .  A
C1117      C1155   1.504       .  S
In1120     O1122   2.277       .  S
In1120     O1123   2.313       .  S
In1120     O1131   2.219       .  S
In1120     O1125   2.249       .  S
In1120     O1127   2.286       .  S
In1120     O1128   2.269       .  S
In1120     O1129   2.241       .  S
In1120     O1132   2.249       .  S
C1121      C1533   1.483       .  S
C1121      O1127   1.263       .  A
C1121      O1129   1.262       .  A
O1122      C1130   1.254       .  A
O1123      C1130   1.261       .  A
C1124      C1382   1.474       .  S
C1124      O1131   1.261       .  A
C1124      O1125   1.266       .  A
C1126      C1250   1.499       .  S
C1126      O1128   1.266       .  A
C1126      O1132   1.261       .  A
N1133      C1138   1.350       .  A
N1133      C1137   1.348       .  A
N1133      H1165   1.039       .  S
N1134      C1141   1.344       .  A
N1134      C1142   1.340       .  A
N1135      C1140   1.352       .  A
N1135      C1139   1.370       .  A
N1135      H1166   1.034       .  S
N1136      C1143   1.361       .  A
N1136      C1144   1.353       .  A
C1137      C1145   1.381       .  A
C1137      C1153   1.395       .  A
C1138      C1154   1.431       .  A
C1138      C1146   1.397       .  A
C1139      C1147   1.382       .  A
C1139      C1156   1.435       .  A
C1140      C1155   1.436       .  A
C1140      C1148   1.393       .  A
C1141      C1153   1.398       .  A
C1141      C1149   1.382       .  A
C1142      C1156   1.424       .  A
C1142      C1150   1.392       .  A
C1143      C1151   1.381       .  A
C1143      C1154   1.432       .  A
C1144      C1152   1.393       .  A
C1144      C1155   1.439       .  A
C1145      C1146   1.374       .  A
C1145      H1157   1.083       .  S
C1146      H1158   1.079       .  S
C1147      C1148   1.383       .  A
C1147      H1159   1.082   1_565  S
C1148      H1160   1.082       .  S
C1149      C1150   1.377       .  A
C1149      H1161   1.083       .  S
C1150      H1162   1.078       .  S
C1151      C1152   1.387       .  A
C1151      H1163   1.082       .  S
C1152      H1164   1.080       .  S
C1153      C1188   1.523       .  S
C1154      C1318   1.501       .  S
C1156      C1215   1.503       .  S
N1167      C1172   1.339       .  A
N1167      C1171   1.338   1_565  A
N1167      H1199   1.045       .  S
N1168      C1175   1.360       .  A
N1168      C1176   1.351       .  A
N1169      C1174   1.361   1_545  A
N1169      C1173   1.355       .  A
N1169      H1200   1.040       .  S
N1170      C1177   1.341       .  A
N1170      C1178   1.341       .  A
C1171      C1179   1.383       .  A
C1171      C1187   1.379       .  A
C1172      C1188   1.381       .  A
C1172      C1180   1.387   1_565  A
C1173      C1181   1.398       .  A
C1173      C1190   1.443       .  A
C1174      C1189   1.420       .  A
C1174      C1182   1.379       .  A
C1175      C1187   1.414       .  A
C1175      C1183   1.376       .  A
C1176      C1190   1.445       .  A
C1176      C1184   1.399       .  A
C1177      C1185   1.386       .  A
C1177      C1188   1.386       .  A
C1178      C1186   1.382       .  A
C1178      C1189   1.384       .  A
C1179      C1180   1.370       .  A
C1179      H1191   1.082       .  S
C1180      H1192   1.081       .  S
C1181      C1182   1.392   1_545  A
C1181      H1193   1.081       .  S
C1182      H1194   1.082       .  S
C1183      C1184   1.387       .  A
C1183      H1195   1.082       .  S
C1184      H1196   1.080       .  S
C1185      C1186   1.370       .  A
C1185      H1197   1.081       .  S
C1186      H1198   1.082   1_565  S
C1187      C1220   1.480       .  S
C1189      C1309   1.485       .  S
In1201     O1203   2.270       .  S
In1201     O1204   2.343       .  S
In1201     O1212   2.228       .  S
In1201     O1206   2.247       .  S
In1201     O1208   2.282       .  S
In1201     O1209   2.272       .  S
In1201     O1210   2.268       .  S
In1201     O1213   2.258       .  S
C1202      C1249   1.487       .  S
C1202      O1208   1.263       .  A
C1202      O1210   1.263       .  A
O1203      C1211   1.252       .  A
O1204      C1211   1.266       .  A
C1205      C1358   1.485       .  S
C1205      O1212   1.263       .  A
C1205      O1206   1.265       .  A
C1207      O1209   1.265       .  A
C1207      O1213   1.258       .  A
C1211      C1282   1.519       .  S
In1214     O1216   2.259       .  S
In1214     O1217   2.244       .  S
In1214     O1225   2.215       .  S
In1214     O1219   2.266       .  S
In1214     O1221   2.297       .  S
In1214     O1222   2.285       .  S
In1214     O1223   2.258   1_545  S
In1214     O1226   2.263       .  S
C1215      O1221   1.262   1_565  A
C1215      O1223   1.258       .  A
O1216      C1224   1.263       .  A
O1217      C1224   1.266       .  A
C1218      C1349   1.473       .  S
C1218      O1225   1.260       .  A
C1218      O1219   1.266       .  A
C1220      O1222   1.262       .  A
C1220      O1226   1.257       .  A
N1227      C1232   1.343       .  A
N1227      C1231   1.345       .  A
N1227      H1259   1.045       .  S
N1228      C1235   1.359       .  A
N1228      C1236   1.350       .  A
N1229      C1234   1.360       .  A
N1229      C1233   1.351       .  A
N1229      H1260   1.041       .  S
N1230      C1237   1.341       .  A
N1230      C1238   1.346       .  A
C1231      C1239   1.379       .  A
C1231      C1247   1.383       .  A
C1232      C1248   1.388       .  A
C1232      C1240   1.384       .  A
C1233      C1241   1.399       .  A
C1233      C1250   1.440       .  A
C1234      C1249   1.415       .  A
C1234      C1242   1.378       .  A
C1235      C1247   1.417       .  A
C1235      C1243   1.379       .  A
C1236      C1250   1.441       .  A
C1236      C1244   1.397       .  A
C1237      C1245   1.389       .  A
C1237      C1248   1.393       .  A
C1238      C1246   1.375       .  A
C1238      C1249   1.380       .  A
C1239      C1240   1.354       .  A
C1239      H1251   1.081       .  S
C1240      H1252   1.074       .  S
C1241      C1242   1.394       .  A
C1241      H1253   1.081       .  S
C1242      H1254   1.082       .  S
C1243      C1244   1.392       .  A
C1243      H1255   1.082       .  S
C1244      H1256   1.081       .  S
C1245      C1246   1.360       .  A
C1245      H1257   1.077       .  S
C1246      H1258   1.081       .  S
C1247      C1301   1.489       .  S
C1248      C1281   1.522       .  S
N1261      C1266   1.361       .  A
N1261      C1265   1.348       .  A
N1261      H1293   1.031       .  S
N1262      C1269   1.345       .  A
N1262      C1270   1.350       .  A
N1263      C1268   1.350       .  A
N1263      C1267   1.366       .  A
N1263      H1294   1.028       .  S
N1264      C1271   1.356       .  A
N1264      C1272   1.347       .  A
C1265      C1273   1.381       .  A
C1265      C1281   1.408       .  A
C1266      C1282   1.444       .  A
C1266      C1274   1.396       .  A
C1267      C1275   1.383       .  A
C1267      C1284   1.435       .  A
C1268      C1283   1.436       .  A
C1268      C1276   1.392       .  A
C1269      C1281   1.408       .  A
C1269      C1277   1.385       .  A
C1270      C1284   1.434       .  A
C1270      C1278   1.391       .  A
C1271      C1279   1.381       .  A
C1271      C1282   1.430       .  A
C1272      C1280   1.394       .  A
C1272      C1283   1.438       .  A
C1273      C1274   1.374       .  A
C1273      H1285   1.083       .  S
C1274      H1286   1.077       .  S
C1275      C1276   1.388       .  A
C1275      H1287   1.082       .  S
C1276      H1288   1.082       .  S
C1277      C1278   1.379       .  A
C1277      H1289   1.083       .  S
C1278      H1290   1.078       .  S
C1279      C1280   1.390       .  A
C1279      H1291   1.082       .  S
C1280      H1292   1.081       .  S
C1284      C1296   1.522       .  S
In1295     O1297   2.278       .  S
In1295     O1298   2.245       .  S
In1295     O1306   2.239       .  S
In1295     O1300   2.287       .  S
In1295     O1302   2.328       .  S
In1295     O1303   2.283       .  S
In1295     O1304   2.278       .  S
In1295     O1307   2.289       .  S
C1296      O1302   1.265       .  A
C1296      O1304   1.257       .  A
O1297      C1305   1.260       .  A
O1298      C1305   1.261       .  A
C1299      C1325   1.493       .  S
C1299      O1306   1.260       .  A
C1299      O1300   1.266       .  A
C1301      O1303   1.263       .  A
C1301      O1307   1.260       .  A
In1308     O1310   2.256       .  S
In1308     O1311   2.314       .  S
In1308     O1319   2.223       .  S
In1308     O1313   2.271       .  S
In1308     O1315   2.289       .  S
In1308     O1316   2.273       .  S
In1308     O1317   2.240       .  S
In1308     O1320   2.239       .  S
C1309      O1315   1.264       .  A
C1309      O1317   1.262       .  A
O1310      C1318   1.255       .  A
O1311      C1318   1.262       .  A
C1312      C1334   1.485       .  S
C1312      O1319   1.262       .  A
C1312      O1313   1.267       .  A
C1314      O1316   1.264       .  A
C1314      O1320   1.259       .  A
C1321      C1322   1.401       .  A
C1321      C1326   1.404       .  A
C1321      H1331   1.083       .  S
C1322      C1323   1.415       .  A
C1322      C1327   1.489       .  S
C1323      C1324   1.409       .  A
C1323      S1328   1.805       .  S
C1324      C1325   1.408       .  A
C1324      H1329   1.084       .  S
C1325      C1326   1.416       .  A
C1326      S1330   1.809       .  S
C1327      C1332   1.411       .  A
C1327      C1336   1.401       .  A
S1328      H1344   1.403       .  S
S1330      H1341   1.407       .  S
C1332      C1333   1.409       .  A
C1332      S1337   1.804       .  S
C1333      C1334   1.407       .  A
C1333      H1338   1.083       .  S
C1334      C1335   1.416       .  A
C1335      C1336   1.401       .  A
C1335      S1339   1.805       .  S
C1336      H1340   1.084       .  S
S1337      H1342   1.407       .  S
S1339      H1343   1.407       .  S
C1345      C1346   1.402       .  A
C1345      C1350   1.397       .  A
C1345      H1355   1.084       .  S
C1346      C1347   1.415       .  A
C1346      C1351   1.484       .  S
C1347      C1348   1.403       .  A
C1347      S1352   1.804       .  S
C1348      C1349   1.403       .  A
C1348      H1353   1.084       .  S
C1349      C1350   1.412       .  A
C1350      S1354   1.805       .  S
C1351      C1356   1.411       .  A
C1351      C1360   1.402       .  A
S1352      H1368   1.406       .  S
S1354      H1365   1.407       .  S
C1356      C1357   1.400       .  A
C1356      S1361   1.808       .  S
C1357      C1358   1.407       .  A
C1357      H1362   1.083       .  S
C1358      C1359   1.416       .  A
C1359      C1360   1.402       .  A
C1359      S1363   1.801       .  S
C1360      H1364   1.084       .  S
S1361      H1366   1.407       .  S
S1363      H1367   1.408       .  S
C1369      C1370   1.399       .  A
C1369      C1374   1.397       .  A
C1369      H1379   1.083       .  S
C1370      C1371   1.412       .  A
C1370      C1375   1.473       .  S
C1371      C1372   1.402       .  A
C1371      S1376   1.807       .  S
C1372      C1373   1.406       .  A
C1372      H1377   1.084       .  S
C1373      C1374   1.415       .  A
C1374      S1378   1.811       .  S
C1375      C1380   1.407       .  A
C1375      C1384   1.401       .  A
S1376      H1392   1.403       .  S
S1378      H1389   1.407       .  S
C1380      C1381   1.401       .  A
C1380      S1385   1.807       .  S
C1381      C1382   1.403       .  A
C1381      H1386   1.083       .  S
C1382      C1383   1.413       .  A
C1383      C1384   1.402       .  A
C1383      S1387   1.808       .  S
C1384      H1388   1.083       .  S
S1385      H1390   1.406       .  S
S1387      H1391   1.407       .  S
C1393      C1394   1.403       .  A
C1393      C1398   1.405       .  A
C1393      H1403   1.083       .  S
C1394      C1395   1.414       .  A
C1394      C1399   1.495       .  S
C1395      C1396   1.406       .  A
C1395      S1400   1.803       .  S
C1396      C1397   1.407       .  A
C1396      H1401   1.083       .  S
C1397      C1398   1.417       .  A
C1398      S1402   1.808       .  S
C1399      C1404   1.415       .  A
C1399      C1408   1.406       .  A
S1400      H1416   1.407       .  S
S1402      H1413   1.407       .  S
C1404      C1405   1.407       .  A
C1404      S1409   1.806       .  S
C1405      C1406   1.401       .  A
C1405      H1410   1.083       .  S
C1406      C1407   1.412       .  A
C1407      C1408   1.402       .  A
C1407      S1411   1.805       .  S
C1408      H1412   1.084       .  S
S1409      H1414   1.407       .  S
S1411      H1415   1.405       .  S
N1417      C1422   1.351       .  A
N1417      C1421   1.347       .  A
N1417      H1449   1.039       .  S
N1419      C1424   1.350       .  A
N1419      C1423   1.369       .  A
N1419      H1450   1.033       .  S
N1420      C1427   1.362       .  A
N1420      C1428   1.351       .  A
C1421      C1437   1.395       .  A
C1422      C1438   1.431       .  A
C1423      C1431   1.380   1_545  A
C1424      C1439   1.434       .  A
C1424      C1432   1.394   1_545  A
C1425      C1433   1.383       .  A
C1426      C1440   1.426       .  A
C1426      C1434   1.392       .  A
C1427      C1435   1.379       .  A
C1427      C1438   1.430       .  A
C1428      C1436   1.395       .  A
C1428      C1439   1.438       .  A
C1429      C1430   1.375       .  A
C1429      H1441   1.083       .  S
C1430      H1442   1.079       .  S
C1431      C1432   1.383       .  A
C1431      H1443   1.082       .  S
C1432      H1444   1.082       .  S
C1433      C1434   1.379       .  A
C1433      H1445   1.083       .  S
C1434      H1446   1.078       .  S
C1435      C1436   1.383       .  A
C1435      H1447   1.082       .  S
C1436      H1448   1.079       .  S
C1439      C1696   1.493       .  S
C1440      C1580   1.509   1_545  S
N1451      C1456   1.337       .  A
N1451      C1455   1.338       .  A
N1451      H1483   1.045   1_465  S
N1452      C1459   1.340       .  A
N1452      C1460   1.341       .  A
N1453      C1458   1.355       .  A
N1453      H1484   1.042       .  S
N1454      C1461   1.362       .  A
N1454      C1462   1.350       .  A
C1456      C1472   1.382       .  A
C1457      C1474   1.417   1_565  A
C1458      C1473   1.442       .  A
C1458      C1466   1.397       .  A
C1459      C1471   1.386   1_655  A
C1459      C1467   1.387       .  A
C1460      C1474   1.380       .  A
C1460      C1468   1.379   1_545  A
C1461      C1469   1.376       .  A
C1461      C1472   1.414   1_655  A
C1462      C1470   1.400       .  A
C1462      C1473   1.442       .  A
C1463      C1464   1.369   1_554  A
C1463      H1475   1.081       .  S
C1464      H1476   1.082       .  S
C1465      C1466   1.391       .  A
C1466      H1478   1.081       .  S
C1467      C1468   1.369   1_545  A
C1467      H1479   1.081   1_645  S
C1468      H1480   1.082       .  S
C1469      C1470   1.387       .  A
C1469      H1481   1.082       .  S
C1470      H1482   1.080       .  S
C1473      C1786   1.501       .  S
C1474      C1499   1.482       .  S
In1485     O1487   2.271       .  S
In1485     O1488   2.228       .  S
In1485     O1496   2.216       .  S
In1485     O1490   2.264       .  S
In1485     O1492   2.287       .  S
In1485     O1493   2.285       .  S
In1485     O1494   2.252       .  S
In1485     O1497   2.285       .  S
C1486      C1568   1.498       .  S
C1486      O1492   1.261       .  A
C1486      O1494   1.258       .  A
O1487      C1495   1.263       .  A
O1488      C1495   1.265       .  A
C1489      C1878   1.472       .  S
C1489      O1496   1.260       .  A
C1489      O1490   1.264       .  A
C1491      O1493   1.260       .  A
C1491      O1497   1.257       .  A
C1495      C1755   1.496       .  S
In1498     O1500   2.273       .  S
In1498     O1501   2.324       .  S
In1498     O1509   2.226       .  S
In1498     O1503   2.274       .  S
In1498     O1505   2.286       .  S
In1498     O1506   2.281       .  S
In1498     O1507   2.243       .  S
In1498     O1510   2.253       .  S
C1499      O1505   1.264       .  A
C1499      O1507   1.262       .  A
O1500      C1508   1.255       .  A
O1501      C1508   1.261       .  A
C1502      C1869   1.496       .  S
C1502      O1509   1.260       .  A
C1502      O1503   1.267       .  A
C1504      C1662   1.506       .  S
C1504      O1506   1.265       .  A
C1504      O1510   1.259       .  A
N1511      C1516   1.341       .  A
N1511      C1515   1.339       .  A
N1511      H1543   1.045       .  S
N1512      C1519   1.361       .  A
N1512      C1520   1.353       .  A
N1513      C1518   1.361       .  A
N1513      C1517   1.355       .  A
N1513      H1544   1.041       .  S
N1514      C1521   1.341       .  A
N1514      C1522   1.342       .  A
C1515      C1531   1.382       .  A
C1516      C1532   1.381       .  A
C1517      C1525   1.398       .  A
C1517      C1534   1.442       .  A
C1518      C1533   1.417       .  A
C1518      C1526   1.378       .  A
C1519      C1531   1.417       .  A
C1519      C1527   1.378       .  A
C1520      C1534   1.446       .  A
C1520      C1528   1.398       .  A
C1521      C1532   1.384       .  A
C1522      C1533   1.383       .  A
C1523      C1524   1.371       .  A
C1523      H1535   1.082       .  S
C1524      H1536   1.082       .  S
C1525      C1526   1.390       .  A
C1525      H1537   1.081       .  S
C1526      H1538   1.082       .  S
C1527      C1528   1.390       .  A
C1527      H1539   1.082       .  S
C1528      H1540   1.080       .  S
C1529      C1530   1.372       .  A
C1529      H1541   1.081       .  S
C1530      H1542   1.082       .  S
C1534      C1679   1.510       .  S
N1545      C1550   1.350   1_655  A
N1545      C1549   1.347   1_556  A
N1545      H1577   1.039       .  S
N1546      C1553   1.344       .  A
N1546      C1554   1.339       .  A
N1547      C1552   1.352       .  A
N1547      C1551   1.369   1_556  A
N1547      H1578   1.035       .  S
N1548      C1555   1.360       .  A
N1548      C1556   1.351       .  A
C1550      C1566   1.430       .  A
C1551      C1559   1.381   1_554  A
C1552      C1567   1.437       .  A
C1552      C1560   1.394       .  A
C1553      C1565   1.396       .  A
C1553      C1561   1.382       .  A
C1554      C1568   1.422       .  A
C1554      C1562   1.393       .  A
C1555      C1563   1.380       .  A
C1555      C1566   1.430   1_655  A
C1556      C1564   1.393       .  A
C1556      C1567   1.437       .  A
C1557      C1558   1.376   1_554  A
C1557      H1569   1.083       .  S
C1558      H1570   1.079       .  S
C1559      C1560   1.380       .  A
C1560      H1572   1.082       .  S
C1561      C1562   1.376       .  A
C1561      H1573   1.083       .  S
C1562      H1574   1.079       .  S
C1563      C1564   1.387       .  A
C1563      H1575   1.082   1_655  S
C1564      H1576   1.080       .  S
C1567      C1777   1.501       .  S
In1579     O1581   2.269       .  S
In1579     O1582   2.261       .  S
In1579     O1590   2.228       .  S
In1579     O1584   2.277       .  S
In1579     O1586   2.299       .  S
In1579     O1587   2.284       .  S
In1579     O1588   2.259       .  S
In1579     O1591   2.260       .  S
C1580      O1586   1.264       .  A
C1580      O1588   1.258       .  A
O1581      C1589   1.260       .  A
O1582      C1589   1.265       .  A
C1583      C1845   1.482       .  S
C1583      O1590   1.261       .  A
C1583      O1584   1.267       .  A
C1585      O1587   1.264       .  A
C1585      O1591   1.256       .  A
C1589      C1627   1.506       .  S
In1592     O1594   2.263       .  S
In1592     O1595   2.311       .  S
In1592     O1603   2.245       .  S
In1592     O1597   2.265       .  S
In1592     O1599   2.293       .  S
In1592     O1600   2.266       .  S
In1592     O1601   2.247       .  S
In1592     O1604   2.252       .  S
C1593      O1599   1.264       .  A
C1593      O1601   1.260       .  A
O1594      C1602   1.255       .  A
O1595      C1602   1.260       .  A
C1596      C1854   1.490       .  S
C1596      O1603   1.263       .  A
C1596      O1597   1.267       .  A
C1598      C1722   1.499       .  S
C1598      O1600   1.264       .  A
C1598      O1604   1.262       .  A
N1605      C1610   1.350       .  A
N1605      C1609   1.348       .  A
N1605      H1637   1.039       .  S
N1606      C1613   1.345       .  A
N1606      C1614   1.340       .  A
N1607      C1612   1.354       .  A
N1607      C1611   1.370       .  A
N1607      H1638   1.035       .  S
N1608      C1615   1.364       .  A
N1608      C1616   1.355       .  A
C1609      C1617   1.381       .  A
C1609      C1625   1.394       .  A
C1610      C1626   1.430       .  A
C1610      C1618   1.396       .  A
C1611      C1619   1.382       .  A
C1611      C1628   1.435       .  A
C1612      C1627   1.438       .  A
C1612      C1620   1.393       .  A
C1613      C1625   1.396       .  A
C1613      C1621   1.383       .  A
C1614      C1628   1.423       .  A
C1614      C1622   1.393       .  A
C1615      C1623   1.378       .  A
C1615      C1626   1.433       .  A
C1616      C1624   1.395       .  A
C1616      C1627   1.445       .  A
C1617      C1618   1.375       .  A
C1617      H1629   1.083       .  S
C1618      H1630   1.079       .  S
C1619      C1620   1.383       .  A
C1619      H1631   1.082   1_565  S
C1620      H1632   1.082       .  S
C1621      C1622   1.376       .  A
C1621      H1633   1.083       .  S
C1622      H1634   1.079       .  S
C1623      C1624   1.386       .  A
C1623      H1635   1.082       .  S
C1624      H1636   1.079       .  S
C1625      C1660   1.522       .  S
C1626      C1790   1.507       .  S
C1628      C1687   1.500       .  S
N1639      C1644   1.339       .  A
N1639      C1643   1.337   1_565  A
N1639      H1671   1.045       .  S
N1640      C1647   1.362       .  A
N1640      C1648   1.352       .  A
N1641      C1646   1.364   1_545  A
N1641      C1645   1.356       .  A
N1641      H1672   1.041       .  S
N1642      C1649   1.340       .  A
N1642      C1650   1.340       .  A
C1643      C1651   1.383       .  A
C1643      C1659   1.379       .  A
C1644      C1660   1.380       .  A
C1644      C1652   1.385   1_565  A
C1645      C1653   1.399       .  A
C1645      C1662   1.445       .  A
C1646      C1661   1.421       .  A
C1646      C1654   1.378       .  A
C1647      C1659   1.416       .  A
C1647      C1655   1.375       .  A
C1648      C1662   1.446       .  A
C1648      C1656   1.400       .  A
C1649      C1657   1.385       .  A
C1649      C1660   1.383       .  A
C1650      C1658   1.382       .  A
C1650      C1661   1.382       .  A
C1651      C1652   1.370       .  A
C1651      H1663   1.082       .  S
C1652      H1664   1.081       .  S
C1653      C1654   1.390   1_545  A
C1653      H1665   1.081       .  S
C1654      H1666   1.082       .  S
C1655      C1656   1.388       .  A
C1655      H1667   1.082       .  S
C1656      H1668   1.079       .  S
C1657      C1658   1.369       .  A
C1657      H1669   1.081       .  S
C1658      H1670   1.082   1_565  S
C1659      C1692   1.483       .  S
C1661      C1781   1.487       .  S
In1673     O1675   2.249       .  S
In1673     O1676   2.359       .  S
In1673     O1684   2.231       .  S
In1673     O1678   2.259       .  S
In1673     O1680   2.286       .  S
In1673     O1681   2.281       .  S
In1673     O1682   2.262       .  S
In1673     O1685   2.267       .  S
C1674      C1721   1.488       .  S
C1674      O1680   1.262       .  A
C1674      O1682   1.264       .  A
O1675      C1683   1.251       .  A
O1676      C1683   1.268       .  A
C1677      C1830   1.486       .  S
C1677      O1684   1.263       .  A
C1677      O1678   1.266       .  A
C1679      O1681   1.266       .  A
C1679      O1685   1.259       .  A
C1683      C1754   1.528       .  S
In1686     O1688   2.246       .  S
In1686     O1689   2.233       .  S
In1686     O1697   2.221       .  S
In1686     O1691   2.271       .  S
In1686     O1693   2.293       .  S
In1686     O1694   2.287       .  S
In1686     O1695   2.245   1_545  S
In1686     O1698   2.271       .  S
C1687      O1693   1.264   1_565  A
C1687      O1695   1.258       .  A
O1688      C1696   1.261       .  A
O1689      C1696   1.266       .  A
C1690      C1821   1.478       .  S
C1690      O1697   1.259       .  A
C1690      O1691   1.265       .  A
C1692      O1694   1.261       .  A
C1692      O1698   1.258       .  A
N1699      C1704   1.345       .  A
N1699      C1703   1.348       .  A
N1699      H1731   1.045       .  S
N1700      C1707   1.357       .  A
N1700      C1708   1.348       .  A
N1701      C1706   1.358       .  A
N1701      C1705   1.353       .  A
N1701      H1732   1.041       .  S
N1702      C1709   1.344       .  A
N1702      C1710   1.349       .  A
C1703      C1711   1.378       .  A
C1703      C1719   1.385       .  A
C1704      C1720   1.392       .  A
C1704      C1712   1.383       .  A
C1705      C1713   1.399       .  A
C1705      C1722   1.441       .  A
C1706      C1721   1.415       .  A
C1706      C1714   1.378       .  A
C1707      C1719   1.413       .  A
C1707      C1715   1.379       .  A
C1708      C1722   1.435       .  A
C1708      C1716   1.395       .  A
C1709      C1717   1.388       .  A
C1709      C1720   1.397       .  A
C1710      C1718   1.376       .  A
C1710      C1721   1.385       .  A
C1711      C1712   1.348       .  A
C1711      H1723   1.080       .  S
C1712      H1724   1.072       .  S
C1713      C1714   1.393       .  A
C1713      H1725   1.080       .  S
C1714      H1726   1.082       .  S
C1715      C1716   1.390       .  A
C1715      H1727   1.082       .  S
C1716      H1728   1.082       .  S
C1717      C1718   1.357       .  A
C1717      H1729   1.076       .  S
C1718      H1730   1.081       .  S
C1719      C1773   1.486       .  S
C1720      C1753   1.527       .  S
N1733      C1738   1.363       .  A
N1733      C1737   1.348       .  A
N1733      H1765   1.031       .  S
N1734      C1741   1.347       .  A
N1734      C1742   1.351       .  A
N1735      C1740   1.350       .  A
N1735      C1739   1.365       .  A
N1735      H1766   1.031       .  S
N1736      C1743   1.355       .  A
N1736      C1744   1.346       .  A
C1737      C1745   1.379       .  A
C1737      C1753   1.410       .  A
C1738      C1754   1.452       .  A
C1738      C1746   1.398       .  A
C1739      C1747   1.381       .  A
C1739      C1756   1.430       .  A
C1740      C1755   1.435       .  A
C1740      C1748   1.393       .  A
C1741      C1753   1.410       .  A
C1741      C1749   1.385       .  A
C1742      C1756   1.433       .  A
C1742      C1750   1.390       .  A
C1743      C1751   1.384       .  A
C1743      C1754   1.435       .  A
C1744      C1752   1.391       .  A
C1744      C1755   1.435       .  A
C1745      C1746   1.375       .  A
C1745      H1757   1.083       .  S
C1746      H1758   1.076       .  S
C1747      C1748   1.385       .  A
C1747      H1759   1.082       .  S
C1748      H1760   1.082       .  S
C1749      C1750   1.379       .  A
C1749      H1761   1.083       .  S
C1750      H1762   1.078       .  S
C1751      C1752   1.393       .  A
C1751      H1763   1.082       .  S
C1752      H1764   1.081       .  S
C1756      C1768   1.521       .  S
In1767     O1769   2.288       .  S
In1767     O1770   2.228       .  S
In1767     O1778   2.232       .  S
In1767     O1772   2.282       .  S
In1767     O1774   2.324       .  S
In1767     O1775   2.275       .  S
In1767     O1776   2.271       .  S
In1767     O1779   2.288       .  S
C1768      O1774   1.265       .  A
C1768      O1776   1.257       .  A
O1769      C1777   1.261       .  A
O1770      C1777   1.260       .  A
C1771      C1797   1.491       .  S
C1771      O1778   1.259       .  A
C1771      O1772   1.266       .  A
C1773      O1775   1.261       .  A
C1773      O1779   1.260       .  A
In1780     O1782   2.271       .  S
In1780     O1783   2.324       .  S
In1780     O1791   2.242       .  S
In1780     O1785   2.264       .  S
In1780     O1787   2.296       .  S
In1780     O1788   2.274       .  S
In1780     O1789   2.237       .  S
In1780     O1792   2.249       .  S
C1781      O1787   1.264       .  A
C1781      O1789   1.262       .  A
O1782      C1790   1.255       .  A
O1783      C1790   1.261       .  A
C1784      C1806   1.487       .  S
C1784      O1791   1.263       .  A
C1784      O1785   1.267       .  A
C1786      O1788   1.266       .  A
C1786      O1792   1.260       .  A
C1793      C1794   1.401       .  A
C1793      C1798   1.404       .  A
C1793      H1803   1.083       .  S
C1794      C1795   1.414       .  A
C1794      C1799   1.489       .  S
C1795      C1796   1.407       .  A
C1795      S1800   1.803       .  S
C1796      C1797   1.407       .  A
C1796      H1801   1.084       .  S
C1797      C1798   1.417       .  A
C1798      S1802   1.810       .  S
C1799      C1804   1.410       .  A
C1799      C1808   1.403       .  A
S1800      H1816   1.404       .  S
S1802      H1813   1.407       .  S
C1804      C1805   1.408       .  A
C1804      S1809   1.805       .  S
C1805      C1806   1.406       .  A
C1805      H1810   1.083       .  S
C1806      C1807   1.415       .  A
C1807      C1808   1.403       .  A
C1807      S1811   1.803       .  S
C1808      H1812   1.084       .  S
S1809      H1814   1.407       .  S
S1811      H1815   1.407       .  S
C1817      C1818   1.403       .  A
C1817      C1822   1.398       .  A
C1817      H1827   1.084       .  S
C1818      C1819   1.415       .  A
C1818      C1823   1.484       .  S
C1819      C1820   1.403       .  A
C1819      S1824   1.804       .  S
C1820      C1821   1.403       .  A
C1820      H1825   1.084       .  S
C1821      C1822   1.414       .  A
C1822      S1826   1.805       .  S
C1823      C1828   1.410       .  A
C1823      C1832   1.403       .  A
S1824      H1840   1.405       .  S
S1826      H1837   1.407       .  S
C1828      C1829   1.401       .  A
C1828      S1833   1.809       .  S
C1829      C1830   1.406       .  A
C1829      H1834   1.082       .  S
C1830      C1831   1.416       .  A
C1831      C1832   1.405       .  A
C1831      S1835   1.801       .  S
C1832      H1836   1.084       .  S
S1833      H1838   1.406       .  S
S1835      H1839   1.408       .  S
C1841      C1842   1.405       .  A
C1841      C1846   1.404       .  A
C1841      H1851   1.083       .  S
C1842      C1843   1.416       .  A
C1842      C1847   1.495       .  S
C1843      C1844   1.407       .  A
C1843      S1848   1.803       .  S
C1844      C1845   1.403       .  A
C1844      H1849   1.084       .  S
C1845      C1846   1.411       .  A
C1846      S1850   1.808       .  S
C1847      C1852   1.412       .  A
C1847      C1856   1.405       .  A
S1848      H1864   1.406       .  S
S1850      H1861   1.407       .  S
C1852      C1853   1.407       .  A
C1852      S1857   1.806   1_556  S
C1853      C1854   1.405       .  A
C1853      H1858   1.083       .  S
C1854      C1855   1.415       .  A
C1855      C1856   1.408       .  A
C1855      S1859   1.807       .  S
C1856      H1860   1.083       .  S
S1857      H1862   1.407       .  S
S1859      H1863   1.407       .  S
C1865      C1866   1.400       .  A
C1865      C1870   1.401       .  A
C1865      H1875   1.083       .  S
C1866      C1867   1.411       .  A
C1866      C1871   1.486       .  S
C1867      C1868   1.406       .  A
C1867      S1872   1.805       .  S
C1868      C1869   1.410       .  A
C1868      H1873   1.083       .  S
C1869      C1870   1.422       .  A
C1870      S1874   1.811       .  S
C1871      C1876   1.411       .  A
C1871      C1880   1.405       .  A
S1872      H1888   1.405       .  S
S1874      H1885   1.406       .  S
C1876      C1877   1.401       .  A
C1876      S1881   1.806       .  S
C1877      C1878   1.401       .  A
C1877      H1882   1.083       .  S
C1878      C1879   1.413       .  A
C1879      C1880   1.402       .  A
C1879      S1883   1.803       .  S
C1880      H1884   1.084       .  S
S1881      H1886   1.407       .  S
S1883      H1887   1.406       .  S
