geometry optimzed in LAMMPS
_audit_creation_date              2020-12-01 
_audit_creation_method            'lammps2cif' 
_symmetry_space_group_name_H-M    'P1' 
_symmetry_Int_Tables_number       1 
_symmetry_cell_setting            triclinic 
loop_ 
_symmetry_equiv_pos_as_xyz 
  x,y,z 
_cell_length_a                    42.42407916 
_cell_length_b                    37.29127505399143 
_cell_length_c                    36.40151635055807 
_cell_angle_alpha                 90.00028372813516 
_cell_angle_beta                  89.98063037846552 
_cell_angle_gamma                 89.99916170336853 
loop_ 
_atom_site_label 
_atom_site_type_symbol 
_atom_site_fract_x 
_atom_site_fract_y 
_atom_site_fract_z 
_atom_site_charge 
N1          N  0.35475275  0.93727478  0.53363862    -0.27000
N2          N  0.37947818  0.95881184  0.53497509    -0.34800
C3          C  0.38082648  0.97811031  0.50392307     0.01400
C4          C  0.35567238  0.96867426  0.48195230     0.07400
C5          C  0.33965291  0.94252084  0.50148250    -0.05700
H6          H  0.40050663  0.99497595  0.49622182     0.08000
H7          H  0.32045938  0.92607038  0.49154135     0.09200
Cu8        Cu  0.41555873  0.95446291  0.57277051     0.44200
Cu9        Cu  0.34713977  0.89704904  0.57233663     0.42000
Cu10       Cu  0.41656117  0.87529154  0.62779144     0.43900
N11         N  0.45540689  0.93647480  0.59965545    -0.34400
N12         N  0.45613946  0.90655018  0.61904105    -0.28600
C13         C  0.48618246  0.89918378  0.62812398    -0.04700
C14         C  0.50523481  0.92572272  0.61351678     0.07500
C15         C  0.48491520  0.94897958  0.59577910     0.01300
H16         H  0.49370908  0.87519397  0.64234181     0.08900
H17         H  0.49124924  0.97186465  0.57907384     0.08000
N18         N  0.37341747  0.84987393  0.63275784    -0.35800
N19         N  0.34804102  0.85805882  0.61332173    -0.28000
C20         C  0.32405896  0.83694905  0.62423160    -0.03200
C21         C  0.33505402  0.81443913  0.65154500     0.05400
C22         C  0.36635274  0.82325404  0.65625626     0.03500
H23         H  0.30048524  0.83771688  0.61294163     0.08600
H24         H  0.38274829  0.81135367  0.67547285     0.07400
N25         N  0.68059411  0.93538770  0.51054711    -0.27000
N26         N  0.65652870  0.95740581  0.51542945    -0.34800
C27         C  0.65221578  0.97678032  0.48477289     0.01400
C28         C  0.67473786  0.96691145  0.45933605     0.07400
C29         C  0.69226848  0.94039624  0.47645338    -0.05700
H30         H  0.63217088  0.99410290  0.47997567     0.08000
H31         H  0.71007039  0.92363843  0.46387014     0.09200
Cu32       Cu  0.62483867  0.95380553  0.55842232     0.44200
Cu33       Cu  0.69175241  0.89502480  0.54796482     0.42000
Cu34       Cu  0.62958800  0.87599418  0.61518344     0.43900
N35         N  0.58806224  0.93661533  0.59123348    -0.34400
N36         N  0.58932872  0.90717510  0.61135245    -0.28600
C37         C  0.56032706  0.89985557  0.62431445    -0.04700
C38         C  0.53985951  0.92591808  0.61150600     0.07500
C39         C  0.55828974  0.94887053  0.59079951     0.01300
H40         H  0.55427373  0.87608718  0.63982622     0.08900
H41         H  0.55028127  0.97119021  0.57427365     0.08000
N42         N  0.67249700  0.84951709  0.61318130    -0.35800
N43         N  0.69506123  0.85620738  0.58899599    -0.28000
C44         C  0.71957995  0.83423480  0.59574128    -0.03200
C45         C  0.71202299  0.81291521  0.62558165     0.05400
C46         C  0.68205714  0.82326650  0.63589512     0.03500
H47         H  0.74128593  0.83382389  0.58014277     0.08600
H48         H  0.66820860  0.81249736  0.65828746     0.07400
N49         N  0.67309325  0.00459905  0.36767177    -0.27000
N50         N  0.64808080  0.98349916  0.36693880    -0.34800
C51         C  0.64683592  0.96452861  0.39823527     0.01400
C52         C  0.67239408  0.97374212  0.41972228     0.07400
C53         C  0.68849924  0.99945655  0.39965812    -0.05700
H54         H  0.62711607  0.94790766  0.40633996     0.08000
H55         H  0.70810232  0.01558845  0.40904694     0.09200
Cu56       Cu  0.61216012  0.98809190  0.32885985     0.44200
Cu57       Cu  0.68050096  0.04403043  0.32813401     0.42000
Cu58       Cu  0.61118593  0.06619438  0.27154425     0.43900
N59         N  0.57276803  0.00500846  0.30026107    -0.34400
N60         N  0.57198622  0.03437393  0.27998704    -0.28600
C61         C  0.54199337  0.04108405  0.27014564    -0.04700
C62         C  0.52303387  0.01470956  0.28520880     0.07500
C63         C  0.54335806  0.99221894  0.30392790     0.01300
H64         H  0.53438616  0.06469737  0.25533295     0.08900
H65         H  0.53703533  0.96982607  0.32132046     0.08000
N66         N  0.65423201  0.09190400  0.26806813    -0.35800
N67         N  0.67944266  0.08352374  0.28772886    -0.28000
C68         C  0.70342410  0.10495834  0.27758957    -0.03200
C69         C  0.69260307  0.12787186  0.25059206     0.05400
C70         C  0.66141834  0.11897594  0.24519501     0.03500
H71         H  0.72690379  0.10405541  0.28913159     0.08600
H72         H  0.64522345  0.13103231  0.22584814     0.07400
N73         N  0.34818092  0.00588966  0.39061161    -0.27000
N74         N  0.37298032  0.98479684  0.38658181    -0.34800
C75         C  0.37737698  0.96603355  0.41759810     0.01400
C76         C  0.35409350  0.97531455  0.44231335     0.07400
C77         C  0.33604743  0.00086469  0.42446578    -0.05700
H78         H  0.39774848  0.94939366  0.42302384     0.08000
H79         H  0.31744854  0.01697328  0.43635361     0.09200
Cu80       Cu  0.40467809  0.98837084  0.34367094     0.44200
Cu81       Cu  0.33650336  0.04514316  0.35241303     0.42000
Cu82       Cu  0.39860666  0.06418887  0.28461066     0.43900
N83         N  0.44063894  0.00443899  0.30920774    -0.34400
N84         N  0.43899494  0.03322839  0.28817301    -0.28600
C85         C  0.46776347  0.04011843  0.27426342    -0.04700
C86         C  0.48843714  0.01441769  0.28741739     0.07500
C87         C  0.47037197  0.99214240  0.30927537     0.01300
H88         H  0.47357730  0.06346955  0.25797962     0.08900
H89         H  0.47866401  0.97041754  0.32642848     0.08000
N90         N  0.35567800  0.09054709  0.28712357    -0.35800
N91         N  0.33318328  0.08375891  0.31137446    -0.28000
C92         C  0.30867435  0.10579333  0.30491530    -0.03200
C93         C  0.31617684  0.12725558  0.27520383     0.05400
C94         C  0.34607798  0.11696462  0.26465837     0.03500
H95         H  0.28702352  0.10614047  0.32062026     0.08600
H96         H  0.35983609  0.12783946  0.24224559     0.07400
N97         N  0.34796347  0.43662489  0.38982560    -0.27000
N98         N  0.37313027  0.45711972  0.38562576    -0.34800
C99         C  0.37804187  0.47583178  0.41655761     0.01400
C100        C  0.35470915  0.46719323  0.44141868     0.07400
C101        C  0.33608942  0.44203949  0.42375284    -0.05700
H102        H  0.39871279  0.49205392  0.42177306     0.08000
H103        H  0.31720355  0.42647754  0.43578638     0.09200
Cu104      Cu  0.40452495  0.45297174  0.34259120     0.44200
Cu105      Cu  0.33533949  0.39760467  0.35163736     0.42000
Cu106      Cu  0.39791143  0.37616616  0.28529628     0.43900
N107        N  0.44013562  0.43637624  0.30805085    -0.34400
N108        N  0.43835991  0.40708764  0.28778171    -0.28600
C109        C  0.46697790  0.40003244  0.27356646    -0.04700
C110        C  0.48767156  0.42618872  0.28569337     0.07500
C111        C  0.46978951  0.44886978  0.30729803     0.01300
H112        H  0.47268842  0.37636918  0.25771190     0.08900
H113        H  0.47818402  0.47104961  0.32375905     0.08000
N114        N  0.35460048  0.35067413  0.28751254    -0.35800
N115        N  0.33177977  0.35844525  0.31103125    -0.28000
C116        C  0.30705614  0.33673443  0.30441962    -0.03200
C117        C  0.31484965  0.31436064  0.27549983     0.05400
C118        C  0.34505466  0.32392201  0.26544771     0.03500
H119        H  0.28513867  0.33707575  0.31961309     0.08600
H120        H  0.35908709  0.31226924  0.24368512     0.07400
N121        N  0.67107185  0.43600558  0.36627902    -0.27000
N122        N  0.64652238  0.45775387  0.36458780    -0.34800
C123        C  0.64509538  0.47719409  0.39557891     0.01400
C124        C  0.67010905  0.46764725  0.41776832     0.07400
C125        C  0.68600629  0.44121173  0.39853090    -0.05700
H126        H  0.62562304  0.49451300  0.40292883     0.08000
H127        H  0.70518234  0.42479895  0.40858408     0.09200
Cu128      Cu  0.61138484  0.45375216  0.32546678     0.44200
Cu129      Cu  0.67883220  0.39611701  0.32740745     0.42000
Cu130      Cu  0.61007736  0.37371013  0.27101492     0.43900
N131        N  0.57202298  0.43626552  0.29721056    -0.34400
N132        N  0.57108450  0.40604856  0.27830553    -0.28600
C133        C  0.54105257  0.39899645  0.26895174    -0.04700
C134        C  0.52221629  0.42602617  0.28292502     0.07500
C135        C  0.54265477  0.44928472  0.30045513     0.01300
H136        H  0.53333662  0.37473128  0.25537297     0.08900
H137        H  0.53642585  0.47230792  0.31701096     0.08000
N138        N  0.65341331  0.34888711  0.26658050    -0.35800
N139        N  0.67854419  0.35739132  0.28629416    -0.28000
C140        C  0.70283368  0.33666837  0.27561678    -0.03200
C141        C  0.69230687  0.31415836  0.24810672     0.05400
C142        C  0.66094636  0.32245728  0.24308702     0.03500
H143        H  0.72624315  0.33756196  0.28735213     0.08600
H144        H  0.64479013  0.31020378  0.22382764     0.07400
N145        N  0.35525977  0.50534108  0.53279829    -0.27000
N146        N  0.38007328  0.48393688  0.53411014    -0.34800
C147        C  0.38162535  0.46481237  0.50296516     0.01400
C148        C  0.35646918  0.47417031  0.48098086     0.07400
C149        C  0.34026871  0.50014961  0.50055894    -0.05700
H150        H  0.40131522  0.44792104  0.49535400     0.08000
H151        H  0.32091399  0.51639794  0.49069500     0.09200
Cu152      Cu  0.41566444  0.48770914  0.57250431     0.44200
Cu153      Cu  0.34723392  0.54503843  0.57197296     0.42000
Cu154      Cu  0.41633376  0.56507889  0.62956678     0.43900
N155        N  0.45526312  0.50438776  0.60058291    -0.34400
N156        N  0.45601727  0.53366856  0.62096295    -0.28600
C157        C  0.48609216  0.54049811  0.63049301    -0.04700
C158        C  0.50509030  0.51429106  0.61507500     0.07500
C159        C  0.48470059  0.49179035  0.59646803     0.01300
H160        H  0.49372129  0.56404746  0.64539110     0.08900
H161        H  0.49096185  0.46947578  0.57893476     0.08000
N162        N  0.37339834  0.59152694  0.63316839    -0.35800
N163        N  0.34821928  0.58388908  0.61312716    -0.28000
C164        C  0.32436774  0.60544311  0.62354279    -0.03200
C165        C  0.33521798  0.62771339  0.65113923     0.05400
C166        C  0.36630966  0.61827831  0.65652620     0.03500
H167        H  0.30094552  0.60504969  0.61181010     0.08600
H168        H  0.38249835  0.62971845  0.67626461     0.07400
N169        N  0.67870555  0.50611461  0.50857914    -0.27000
N170        N  0.65452366  0.48428545  0.51356959    -0.34800
C171        C  0.64974668  0.46523701  0.48280082     0.01400
C172        C  0.67214350  0.47508346  0.45724472     0.07400
C173        C  0.69005176  0.50126986  0.47432067    -0.05700
H174        H  0.62970638  0.44785313  0.47822310     0.08000
H175        H  0.70809383  0.51770916  0.46176169     0.09200
Cu176      Cu  0.62381426  0.48702062  0.55751345     0.44200
Cu177      Cu  0.69082967  0.54556921  0.54649793     0.42000
Cu178      Cu  0.63026481  0.56232316  0.61681111     0.43900
N179        N  0.58767593  0.50327165  0.59166543    -0.34400
N180        N  0.58941946  0.53203961  0.61271695    -0.28600
C181        C  0.56056779  0.53932048  0.62623095    -0.04700
C182        C  0.53973748  0.51387744  0.61284365     0.07500
C183        C  0.55780764  0.49136744  0.59120957     0.01300
H184        H  0.55484810  0.56268768  0.64253340     0.08900
H185        H  0.54946996  0.46970375  0.57400343     0.08000
N186        N  0.67322250  0.58879844  0.61397680    -0.35800
N187        N  0.69502546  0.58306160  0.58860043    -0.28000
C188        C  0.71948822  0.60527282  0.59471481    -0.03200
C189        C  0.71272968  0.62574323  0.62539326     0.05400
C190        C  0.68327510  0.61466644  0.63686853     0.03500
H191        H  0.74055040  0.60653662  0.57800460     0.08600
H192        H  0.67000862  0.62487036  0.66000511     0.07400
N193        N  0.85588959  0.93797082  0.86431524    -0.27000
N194        N  0.88037351  0.95984380  0.86298010    -0.34800
C195        C  0.88140359  0.97928144  0.89395505     0.01400
C196        C  0.85623932  0.96954728  0.91577984     0.07400
C197        C  0.84061757  0.94308438  0.89634760    -0.05700
H198        H  0.90082778  0.99651729  0.90166466     0.08000
H199        H  0.82153525  0.92643176  0.90623929     0.09200
Cu200      Cu  0.91627982  0.95590576  0.82504457     0.44200
Cu201      Cu  0.84873643  0.89756521  0.82594980     0.42000
Cu202      Cu  0.91758009  0.87704079  0.76908747     0.43900
N203        N  0.95593721  0.93855692  0.79759949    -0.34400
N204        N  0.95690401  0.90893856  0.77772914    -0.28600
C205        C  0.98707060  0.90190937  0.76881678    -0.04700
C206        C  0.00587842  0.92830831  0.78413434     0.07500
C207        C  0.98532564  0.95114495  0.80201070     0.01300
H208        H  0.99486557  0.87803034  0.75459282     0.08900
H209        H  0.99141031  0.97365355  0.81936265     0.08000
N210        N  0.87500286  0.84986928  0.76606870    -0.35800
N211        N  0.84988354  0.85766984  0.78612982    -0.28000
C212        C  0.82615451  0.83565196  0.77651710    -0.03200
C213        C  0.83699897  0.81289293  0.74937646     0.05400
C214        C  0.86799018  0.82252944  0.74340823     0.03500
H215        H  0.80278428  0.83615441  0.78840451     0.08600
H216        H  0.88412463  0.81084743  0.72374559     0.07400
N217        N  0.17913396  0.93357008  0.89359338    -0.27000
N218        N  0.15430023  0.95468167  0.88999840    -0.34800
C219        C  0.14965533  0.97255101  0.92151171     0.01400
C220        C  0.17281650  0.96262475  0.94607950     0.07400
C221        C  0.19108333  0.93770457  0.92764369    -0.05700
H222        H  0.12928808  0.98911124  0.92722466     0.08000
H223        H  0.20974641  0.92144110  0.93915216     0.09200
Cu224      Cu  0.12304163  0.95235963  0.84663293     0.44200
Cu225      Cu  0.19102193  0.89532827  0.85448253     0.42000
Cu226      Cu  0.13020848  0.87883404  0.78453779     0.43900
N227        N  0.08777046  0.93756469  0.81068482    -0.34400
N228        N  0.08981206  0.90958794  0.78857250    -0.28600
C229        C  0.06130966  0.90317331  0.77376013    -0.04700
C230        C  0.04040246  0.92838048  0.78736516     0.07500
C231        C  0.05804162  0.94985934  0.81048911     0.01300
H232        H  0.05582462  0.88047364  0.75639614     0.08900
H233        H  0.04942308  0.97095718  0.82824210     0.08000
N234        N  0.17262177  0.85166799  0.78770681    -0.35800
N235        N  0.19456346  0.85736258  0.81289669    -0.28000
C236        C  0.21878041  0.83482535  0.80684322    -0.03200
C237        C  0.21163346  0.81414072  0.77646827     0.05400
C238        C  0.18232135  0.82553924  0.76496146     0.03500
H239        H  0.24003094  0.83367592  0.82321942     0.08600
H240        H  0.16901377  0.81558029  0.74175577     0.07400
N241        N  0.84804418  0.00712849  0.00673415    -0.27000
N242        N  0.87192304  0.98483925  0.01163138    -0.34800
C243        C  0.87640234  0.96589250  0.98073666     0.01400
C244        C  0.85416602  0.97639215  0.95527201     0.07400
C245        C  0.83668163  0.00279492  0.97246408    -0.05700
H246        H  0.89622452  0.94822899  0.97597510     0.08000
H247        H  0.81893416  0.01971166  0.96001040     0.09200
Cu248      Cu  0.90288247  0.98688782  0.05545119     0.44200
Cu249      Cu  0.83595842  0.04650172  0.04446686     0.42000
Cu250      Cu  0.89689193  0.06371456  0.11289152     0.43900
N251        N  0.93891279  0.00346300  0.08971412    -0.34400
N252        N  0.93720939  0.03279286  0.10994069    -0.28600
C253        C  0.96588267  0.04008248  0.12382903    -0.04700
C254        C  0.98662407  0.01406356  0.11157860     0.07500
C255        C  0.96867337  0.99117994  0.09020176     0.01300
H256        H  0.97155777  0.06378091  0.13964070     0.08900
H257        H  0.97707504  0.96896504  0.07378913     0.08000
N258        N  0.85404471  0.08996614  0.11105958    -0.35800
N259        N  0.83181254  0.08398528  0.08631911    -0.28000
C260        C  0.80728578  0.10589787  0.09311159    -0.03200
C261        C  0.81457580  0.12639545  0.12358636     0.05400
C262        C  0.84429725  0.11566659  0.13424408     0.03500
H263        H  0.78589028  0.10697995  0.07698762     0.08600
H264        H  0.85795765  0.12600138  0.15699322     0.07400
N265        N  0.17245923  0.00030241  0.03730487    -0.27000
N266        N  0.14755371  0.97906379  0.03870045    -0.34800
C267        C  0.14611978  0.95966769  0.00771587     0.01400
C268        C  0.17142161  0.96877020  0.98577713     0.07400
C269        C  0.18760673  0.99478085  0.00525145    -0.05700
H270        H  0.12622135  0.94318662  0.99991856     0.08000
H271        H  0.20680810  0.01116776  0.99520517     0.09200
Cu272      Cu  0.11131582  0.98460654  0.07613931     0.44200
Cu273      Cu  0.17984758  0.04111989  0.07513175     0.42000
Cu274      Cu  0.10988559  0.06477427  0.12956970     0.43900
N275        N  0.07121413  0.00324658  0.10199611    -0.34400
N276        N  0.07025458  0.03340288  0.12099196    -0.28600
C277        C  0.04005899  0.04091962  0.12935593    -0.04700
C278        C  0.02119514  0.01425194  0.11459964     0.07500
C279        C  0.04176330  0.99078770  0.09759142     0.01300
H280        H  0.03231983  0.06513557  0.14301498     0.08900
H281        H  0.03567889  0.96774731  0.08099076     0.08000
N282        N  0.15316019  0.09025273  0.13361315    -0.35800
N283        N  0.17857960  0.08140104  0.11453433    -0.28000
C284        C  0.20256892  0.10281901  0.12467053    -0.03200
C285        C  0.19157583  0.12626579  0.15110716     0.05400
C286        C  0.16025082  0.11763726  0.15614976     0.03500
H287        H  0.22616623  0.10157641  0.11346710     0.08600
H288        H  0.14386693  0.13019299  0.17494818     0.07400
N289        N  0.85647225  0.50202835  0.86352842    -0.27000
N290        N  0.88144159  0.48086349  0.86266715    -0.34800
C291        C  0.88259804  0.46159402  0.89374955     0.01400
C292        C  0.85703167  0.47069395  0.91521971     0.07400
C293        C  0.84101152  0.49663980  0.89542242    -0.05700
H294        H  0.90229350  0.44489654  0.90175820     0.08000
H295        H  0.82142946  0.51273640  0.90494934     0.09200
Cu296      Cu  0.91755899  0.48562184  0.82507564     0.44200
Cu297      Cu  0.84907454  0.54180439  0.82440961     0.42000
Cu298      Cu  0.91942883  0.56451447  0.76971658     0.43900
N299        N  0.95735808  0.50267975  0.79766762    -0.34400
N300        N  0.95849974  0.53241614  0.77801733    -0.28600
C301        C  0.98863184  0.53910461  0.76878042    -0.04700
C302        C  0.00726577  0.51232479  0.78364663     0.07500
C303        C  0.98664010  0.48963352  0.80160886     0.01300
H304        H  0.99653544  0.56295086  0.75457833     0.08900
H305        H  0.99263670  0.46690050  0.81869072     0.08000
N306        N  0.87636374  0.59015281  0.76534652    -0.35800
N307        N  0.85077835  0.58142860  0.78419639    -0.28000
C308        C  0.82692410  0.60281854  0.77361260    -0.03200
C309        C  0.83818848  0.62611641  0.74720174     0.05400
C310        C  0.86953960  0.61746745  0.74260199     0.03500
H311        H  0.80324991  0.60176226  0.78460815     0.08600
H312        H  0.88611351  0.62991202  0.72395139     0.07400
N313        N  0.17945508  0.50639012  0.89301391    -0.27000
N314        N  0.15548683  0.48419455  0.88828424    -0.34800
C315        C  0.15094884  0.46537118  0.91922823     0.01400
C316        C  0.17324037  0.47582113  0.94462031     0.07400
C317        C  0.19084713  0.50206591  0.92728898    -0.05700
H318        H  0.13104075  0.44785061  0.92407050     0.08000
H319        H  0.20863532  0.51896052  0.93968862     0.09200
Cu320      Cu  0.12453346  0.48614104  0.84464913     0.44200
Cu321      Cu  0.19133409  0.54592632  0.85514326     0.42000
Cu322      Cu  0.13107706  0.56231873  0.78598463     0.43900
N323        N  0.08919702  0.50190853  0.80929748    -0.34400
N324        N  0.09107404  0.53086132  0.78853169    -0.28600
C325        C  0.06256242  0.53774494  0.77403569    -0.04700
C326        C  0.04178216  0.51187599  0.78649381     0.07500
C327        C  0.05951638  0.48947155  0.80857765     0.01300
H328        H  0.05695359  0.56123993  0.75787836     0.08900
H329        H  0.05097043  0.46765802  0.82544895     0.08000
N330        N  0.17324017  0.58988877  0.78876922    -0.35800
N331        N  0.19525757  0.58424886  0.81384888    -0.28000
C332        C  0.21949968  0.60672340  0.80752044    -0.03200
C333        C  0.21224190  0.62729783  0.77704726     0.05400
C334        C  0.18285206  0.61588203  0.76582068     0.03500
H335        H  0.24083688  0.60789625  0.82374027     0.08600
H336        H  0.16944303  0.62571826  0.74263924     0.07400
N337        N  0.84916099  0.43231162  0.00593204    -0.27000
N338        N  0.87206898  0.45575622  0.01136710    -0.34800
C339        C  0.87617134  0.47510155  0.98063705     0.01400
C340        C  0.85466304  0.46365881  0.95470846     0.07400
C341        C  0.83807159  0.43624746  0.97148177    -0.05700
H342        H  0.89533414  0.49378191  0.97631110     0.08000
H343        H  0.82114757  0.41852248  0.95865630     0.09200
Cu344      Cu  0.90225390  0.45486622  0.05604808     0.44200
Cu345      Cu  0.83800240  0.39248698  0.04359480     0.42000
Cu346      Cu  0.89563642  0.38001339  0.11702651     0.43900
N347        N  0.93775561  0.43963870  0.09181494    -0.34400
N348        N  0.93585157  0.41126296  0.11342887    -0.28600
C349        C  0.96451209  0.40439009  0.12764636    -0.04700
C350        C  0.98545122  0.42964054  0.11416500     0.07500
C351        C  0.96759677  0.45168487  0.09176512     0.01300
H352        H  0.97010172  0.38122265  0.14430196     0.08900
H353        H  0.97615693  0.47292504  0.07415439     0.08000
N354        N  0.85401649  0.35134745  0.11256975    -0.35800
N355        N  0.83314399  0.35557537  0.08590034    -0.28000
C356        C  0.80909964  0.33262214  0.09127321    -0.03200
C357        C  0.81525315  0.31322569  0.12280070     0.05400
C358        C  0.84383976  0.32566863  0.13557398     0.03500
H359        H  0.78867569  0.33030928  0.07364628     0.08600
H360        H  0.85633353  0.31670791  0.15979782     0.07400
N361        N  0.17072520  0.43705438  0.03531341    -0.27000
N362        N  0.14620010  0.45888419  0.03644013    -0.34800
C363        C  0.14558973  0.47862618  0.00565145     0.01400
C364        C  0.17103120  0.46910991  0.98413795     0.07400
C365        C  0.18639583  0.44246337  0.00359267    -0.05700
H366        H  0.12621172  0.49583642  0.99772763     0.08000
H367        H  0.20555032  0.42583978  0.99383604     0.09200
Cu368      Cu  0.10969532  0.45461209  0.07368735     0.44200
Cu369      Cu  0.17753700  0.39640603  0.07346528     0.42000
Cu370      Cu  0.10858691  0.37720098  0.13118131     0.43900
N371        N  0.07000161  0.43821428  0.10184808    -0.34400
N372        N  0.06906197  0.40907328  0.12244592    -0.28600
C373        C  0.03892838  0.40266686  0.13212554    -0.04700
C374        C  0.02010509  0.42898992  0.11657487     0.07500
C375        C  0.04066288  0.45111599  0.09775322     0.01300
H376        H  0.03111548  0.37927943  0.14716891     0.08900
H377        H  0.03456440  0.47338370  0.08008580     0.08000
N378        N  0.15129703  0.34995651  0.13447168    -0.35800
N379        N  0.17627249  0.35715927  0.11391960    -0.28000
C380        C  0.19999915  0.33520694  0.12368687    -0.03200
C381        C  0.18939638  0.31315137  0.15155552     0.05400
C382        C  0.15847783  0.32310222  0.15770553     0.03500
H383        H  0.22325336  0.33534733  0.11148194     0.08600
H384        H  0.14249213  0.31190980  0.17782562     0.07400
N385        N  0.23907318  0.72078388  0.75388603    -0.36300
N386        N  0.27478858  0.66560940  0.71569493    -0.56900
N387        N  0.31228855  0.72100895  0.67984501    -0.36300
N388        N  0.27462094  0.77617850  0.71572362    -0.56900
C389        C  0.22176984  0.69147219  0.76254452     0.27300
C390        C  0.22157491  0.74999635  0.76236177     0.27300
C391        C  0.32204365  0.69181608  0.66088589     0.27300
C392        C  0.32203148  0.75029746  0.66103802     0.27300
C393        C  0.25832572  0.64433663  0.73885875     0.35900
C394        C  0.29623814  0.64438205  0.69893237     0.35900
C395        C  0.25796754  0.79734628  0.73877395     0.35900
C396        C  0.29606384  0.79753460  0.69915230     0.35900
C397        C  0.19318171  0.70225768  0.77741650    -0.21600
C398        C  0.19305594  0.73906604  0.77728883    -0.21600
C399        C  0.33872334  0.70270972  0.63006438    -0.21600
C400        C  0.33871553  0.73956725  0.63015951    -0.21600
C401        C  0.26917242  0.60932755  0.73644813    -0.22600
C402        C  0.29320208  0.60938212  0.71122835    -0.22600
C403        C  0.26869820  0.83241772  0.73650064    -0.22600
C404        C  0.29286429  0.83250495  0.71148074    -0.22600
C405        C  0.23180683  0.65535822  0.75951388    -0.18000
C406        C  0.23138412  0.78616843  0.75917885    -0.18000
C407        C  0.31724976  0.78645331  0.67146422    -0.18000
C408        C  0.31732919  0.65560420  0.67116646    -0.18000
H409        H  0.17442207  0.68551959  0.78793381     0.14900
H410        H  0.17419074  0.75572362  0.78769138     0.14900
H411        H  0.34974816  0.68586192  0.60953995     0.14900
H412        H  0.34971975  0.75652084  0.60971109     0.14900
H413        H  0.26033714  0.58595488  0.75072369     0.13200
H414        H  0.30660185  0.58617301  0.70257222     0.13200
H415        H  0.25970314  0.85574253  0.75072261     0.13200
H416        H  0.30622252  0.85578820  0.70294708     0.13200
H417        H  0.26269632  0.72086170  0.74663016     0.26500
H418        H  0.30239795  0.72094668  0.70586877     0.26500
N419        N  0.77577641  0.66451791  0.68590207    -0.36300
N420        N  0.73875189  0.71944418  0.64899972    -0.56900
N421        N  0.77471180  0.77458893  0.68731307    -0.36300
N422        N  0.81399895  0.71962057  0.72134077    -0.56900
C423        C  0.75964170  0.64387673  0.66178100     0.27300
C424        C  0.79898462  0.64402465  0.70032921     0.27300
C425        C  0.75815048  0.79542525  0.66373743     0.27300
C426        C  0.79710421  0.79545832  0.70293597     0.27300
C427        C  0.72241971  0.69028116  0.63779482     0.35900
C428        C  0.72216372  0.74847749  0.63796974     0.35900
C429        C  0.82586376  0.69049780  0.73856999     0.35900
C430        C  0.82524695  0.74854775  0.73945949     0.35900
C431        C  0.77261615  0.60971245  0.66123351    -0.21600
C432        C  0.79747054  0.60985855  0.68541965    -0.25600
C433        C  0.76991042  0.83014493  0.66494140    -0.21600
C434        C  0.79447841  0.83012488  0.68953000    -0.21600
C435        C  0.69568381  0.70087815  0.61878349    -0.22600
C436        C  0.69555293  0.73764108  0.61882619    -0.22600
C437        C  0.84519462  0.70098536  0.76733503    -0.22600
C438        C  0.84482127  0.73775356  0.76788058    -0.22600
C439        C  0.73228679  0.65427111  0.64219509    -0.18000
C440        C  0.82036137  0.65456138  0.72810331    -0.18000
C441        C  0.81899128  0.78462981  0.73011894    -0.18000
C442        C  0.73152215  0.78461817  0.64294357    -0.18000
H443        H  0.76485275  0.58677628  0.64547296     0.14900
H444        H  0.81247263  0.58718376  0.69165272     0.14900
H445        H  0.76154822  0.85335656  0.65004440     0.14900
H446        H  0.80863848  0.85317408  0.69688533     0.14900
H447        H  0.67834048  0.68398780  0.60554614     0.13200
H448        H  0.67803628  0.75436191  0.60568265     0.13200
H449        H  0.85817912  0.68395488  0.78605554     0.13200
H450        H  0.85745140  0.75458953  0.78710881     0.13200
H451        H  0.76897403  0.68953232  0.69536580     0.26500
H452        H  0.76888312  0.74881467  0.69535198     0.26500
N453        N  0.25400870  0.16510906  0.21264216    -0.36300
N454        N  0.28902807  0.22053901  0.25204084    -0.56900
N455        N  0.25093429  0.27548025  0.21558976    -0.36300
N456        N  0.21422673  0.21989017  0.17838626    -0.56900
C457        C  0.27043102  0.14442510  0.23649847     0.27300
C458        C  0.23174587  0.14407877  0.19698462     0.27300
C459        C  0.26961515  0.29699051  0.23613856     0.27300
C460        C  0.23057445  0.29662091  0.19688465     0.27300
C461        C  0.30530498  0.19162138  0.26389438     0.35900
C462        C  0.30431522  0.24983313  0.26473759     0.35900
C463        C  0.20248214  0.19075556  0.16110553     0.35900
C464        C  0.20110560  0.24888788  0.16216697     0.35900
C465        C  0.25883721  0.10963692  0.23530099    -0.21600
C466        C  0.23443819  0.10946099  0.21053496    -0.21600
C467        C  0.26088743  0.33243509  0.23043228    -0.21600
C468        C  0.23628118  0.33218566  0.20589223    -0.21600
C469        C  0.33078918  0.20257885  0.28492289    -0.22600
C470        C  0.33013294  0.23933462  0.28551903    -0.22600
C471        C  0.18145228  0.20126318  0.13401743    -0.22600
C472        C  0.18052287  0.23801092  0.13474771    -0.22600
C473        C  0.29659837  0.15544177  0.25792488    -0.18000
C474        C  0.20954598  0.15473877  0.17006113    -0.18000
C475        C  0.20755959  0.28513157  0.17112081    -0.18000
C476        C  0.29525517  0.28596323  0.25855596    -0.18000
H477        H  0.26707325  0.08654952  0.25049541     0.14900
H478        H  0.22029741  0.08634997  0.20333551     0.14900
H479        H  0.27136656  0.35622891  0.24225163     0.14900
H480        H  0.22424140  0.35570358  0.19558480     0.14900
H481        H  0.34786161  0.18591164  0.29892091     0.13200
H482        H  0.34673949  0.25628225  0.29991061     0.13200
H483        H  0.16819525  0.18428129  0.11551683     0.13200
H484        H  0.16656771  0.25477495  0.11674197     0.13200
H485        H  0.25993444  0.19081133  0.20438193     0.26500
H486        H  0.25280120  0.24806079  0.21333653     0.26500
N487        N  0.75358643  0.27533849  0.18530028    -0.36300
N488        N  0.71647784  0.22074448  0.22270606    -0.56900
N489        N  0.75367865  0.16539647  0.18663964    -0.36300
N490        N  0.78861762  0.22000076  0.14645312    -0.56900
C491        C  0.73100179  0.29609665  0.20063053     0.27300
C492        C  0.76896740  0.29565219  0.16027006     0.27300
C493        C  0.73139329  0.14486869  0.20286921     0.27300
C494        C  0.76905023  0.14450416  0.16209401     0.27300
C495        C  0.70512487  0.24996392  0.24018918     0.35900
C496        C  0.70522696  0.19194778  0.24100464     0.35900
C497        C  0.80521605  0.24892286  0.13521708     0.35900
C498        C  0.80507769  0.19083751  0.13562608     0.35900
C499        C  0.73220821  0.33015247  0.18539485    -0.21600
C500        C  0.75619739  0.32990672  0.16001008    -0.21600
C501        C  0.73285909  0.11035054  0.18880310    -0.21600
C502        C  0.75664099  0.11008575  0.16317717    -0.21600
C503        C  0.68617372  0.23967550  0.26939135    -0.22600
C504        C  0.68623129  0.20291583  0.26989806    -0.22600
C505        C  0.83195753  0.23808125  0.11635082    -0.22600
C506        C  0.83184664  0.20132785  0.11654539    -0.22600
C507        C  0.71035281  0.28579402  0.22924021    -0.18000
C508        C  0.79567802  0.28495320  0.13975506    -0.18000
C509        C  0.79542255  0.15489664  0.14078642    -0.18000
C510        C  0.71065397  0.15585945  0.23112953    -0.18000
H511        H  0.71754699  0.35297730  0.19213601     0.14900
H512        H  0.76358271  0.35260078  0.14362383     0.14900
H513        H  0.71846489  0.08756572  0.19641184     0.14900
H514        H  0.76410948  0.08694214  0.14752555     0.14900
H515        H  0.67351735  0.25683094  0.28830758     0.13200
H516        H  0.67364294  0.18620094  0.28928336     0.13200
H517        H  0.84951641  0.25483181  0.10328830     0.13200
H518        H  0.84933149  0.18438477  0.10362621     0.13200
H519        H  0.76062924  0.25031129  0.19462735     0.26500
H520        H  0.76044426  0.19084321  0.19495431     0.26500
loop_ 
_geom_bond_atom_site_label_1 
_geom_bond_atom_site_label_2 
_geom_bond_distance 
_geom_bond_site_symmetry_2 
_ccdc_geom_bond_type 
N1            N2   1.322       .  A
N1            C5   1.349       .  A
N1           Cu9   2.083       .  S
N2            C3   1.341       .  A
N2           Cu8   2.065       .  S
C3            C4   1.379       .  A
C3            H6   1.082       .  S
C4            C5   1.385       .  A
C4           C76   1.466       .  S
C5            H7   1.082       .  S
Cu8          N11   2.066       .  S
Cu9          N19   2.084       .  S
Cu10         N12   2.069       .  S
Cu10         N18   2.069       .  S
N11          N12   1.321       .  A
N11          C15   1.343       .  A
N12          C13   1.345       .  A
C13          C14   1.384       .  A
C13          H16   1.082       .  S
C14          C15   1.383       .  A
C14          C38   1.471       .  S
C15          H17   1.082       .  S
N18          N19   1.324       .  A
N18          C22   1.344       .  A
N19          C20   1.346       .  A
C20          C21   1.382       .  A
C20          H23   1.082       .  S
C21          C22   1.379       .  A
C21         C407   1.478       .  S
C22          H24   1.082       .  S
N25          N26   1.322       .  A
N25          C29   1.349       .  A
N25         Cu33   2.085       .  S
N26          C27   1.342       .  A
N26         Cu32   2.067       .  S
C27          C28   1.380       .  A
C27          H30   1.082       .  S
C28          C29   1.385       .  A
C28          C52   1.468       .  S
C29          H31   1.082       .  S
Cu32         N35   2.067       .  S
Cu33         N43   2.085       .  S
Cu34         N36   2.071       .  S
Cu34         N42   2.072       .  S
N35          N36   1.321       .  A
N35          C39   1.343       .  A
N36          C37   1.346       .  A
C37          C38   1.384       .  A
C37          H40   1.082       .  S
C38          C39   1.383       .  A
C39          H41   1.082       .  S
N42          N43   1.324       .  A
N42          C46   1.344       .  A
N43          C44   1.347       .  A
C44          C45   1.384       .  A
C44          H47   1.082       .  S
C45          C46   1.380       .  A
C45         C442   1.482       .  S
C46          H48   1.082       .  S
N49          N50   1.321   1_545  A
N49          C53   1.349   1_545  A
N49         Cu57   2.081       .  S
N50          C51   1.342       .  A
N50         Cu56   2.067       .  S
C51          C52   1.381       .  A
C51          H54   1.082       .  S
C52          C53   1.385       .  A
C53          H55   1.082   1_565  S
Cu56         N59   2.068   1_565  S
Cu57         N67   2.082       .  S
Cu58         N60   2.066       .  S
Cu58         N66   2.066       .  S
N59          N60   1.321       .  A
N59          C63   1.342   1_545  A
N60          C61   1.345       .  A
C61          C62   1.384       .  A
C61          H64   1.082       .  S
C62          C63   1.383   1_545  A
C62          C86   1.470       .  S
C63          H65   1.082       .  S
N66          N67   1.324       .  A
N66          C70   1.344       .  A
N67          C68   1.345       .  A
C68          C69   1.381       .  A
C68          H71   1.082       .  S
C69          C70   1.378       .  A
C69         C510   1.476       .  S
C70          H72   1.082       .  S
N73          N74   1.322   1_545  A
N73          C77   1.348       .  A
N73         Cu81   2.079       .  S
N74          C75   1.341       .  A
N74         Cu80   2.065       .  S
C75          C76   1.380       .  A
C75          H78   1.082       .  S
C76          C77   1.384   1_565  A
C77          H79   1.082       .  S
Cu80         N83   2.064   1_565  S
Cu81         N91   2.080       .  S
Cu82         N84   2.070       .  S
Cu82         N90   2.072       .  S
N83          N84   1.321       .  A
N83          C87   1.342   1_545  A
N84          C85   1.346       .  A
C85          C86   1.385       .  A
C85          H88   1.082       .  S
C86          C87   1.382   1_545  A
C87          H89   1.082       .  S
N90          N91   1.324       .  A
N90          C94   1.344       .  A
N91          C92   1.346       .  A
C92          C93   1.383       .  A
C92          H95   1.082       .  S
C93          C94   1.380       .  A
C93         C473   1.480       .  S
C94          H96   1.082       .  S
N97          N98   1.322       .  A
N97         C101   1.349       .  A
N97        Cu105   2.083       .  S
N98          C99   1.341       .  A
N98        Cu104   2.062       .  S
C99         C100   1.379       .  A
C99         H102   1.082       .  S
C100        C101   1.385       .  A
C100        C148   1.465       .  S
C101        H103   1.082       .  S
Cu104       N107   2.060       .  S
Cu105       N115   2.083       .  S
Cu106       N108   2.069       .  S
Cu106       N114   2.070       .  S
N107        N108   1.320       .  A
N107        C111   1.342       .  A
N108        C109   1.346       .  A
C109        C110   1.385       .  A
C109        H112   1.082       .  S
C110        C111   1.382       .  A
C110        C134   1.469       .  S
C111        H113   1.082       .  S
N114        N115   1.324       .  A
N114        C118   1.343       .  A
N115        C116   1.347       .  A
C116        C117   1.383       .  A
C116        H119   1.082       .  S
C117        C118   1.379       .  A
C117        C476   1.481       .  S
C118        H120   1.082       .  S
N121        N122   1.321       .  A
N121        C125   1.348       .  A
N121       Cu129   2.079       .  S
N122        C123   1.342       .  A
N122       Cu128   2.067       .  S
C123        C124   1.381       .  A
C123        H126   1.082       .  S
C124        C125   1.384       .  A
C124        C172   1.466       .  S
C125        H127   1.082       .  S
Cu128       N131   2.067       .  S
Cu129       N139   2.080       .  S
Cu130       N132   2.064       .  S
Cu130       N138   2.065       .  S
N131        N132   1.321       .  A
N131        C135   1.342       .  A
N132        C133   1.345       .  A
C133        C134   1.383       .  A
C133        H136   1.082       .  S
C134        C135   1.383       .  A
C135        H137   1.082       .  S
N138        N139   1.324       .  A
N138        C142   1.343       .  A
N139        C140   1.345       .  A
C140        C141   1.381       .  A
C140        H143   1.082       .  S
C141        C142   1.378       .  A
C141        C507   1.475       .  S
C142        H144   1.082       .  S
N145        N146   1.322       .  A
N145        C149   1.349       .  A
N145       Cu153   2.083       .  S
N146        C147   1.341       .  A
N146       Cu152   2.063       .  S
C147        C148   1.379       .  A
C147        H150   1.082       .  S
C148        C149   1.385       .  A
C149        H151   1.082       .  S
Cu152       N155   2.063       .  S
Cu153       N163   2.084       .  S
Cu154       N156   2.075       .  S
Cu154       N162   2.075       .  S
N155        N156   1.320       .  A
N155        C159   1.343       .  A
N156        C157   1.347       .  A
C157        C158   1.385       .  A
C157        H160   1.082       .  S
C158        C159   1.383       .  A
C158        C182   1.472       .  S
C159        H161   1.082       .  S
N162        N163   1.325       .  A
N162        C166   1.345       .  A
N163        C164   1.347       .  A
C164        C165   1.382       .  A
C164        H167   1.082       .  S
C165        C166   1.379       .  A
C165        C408   1.479       .  S
C166        H168   1.082       .  S
N169        N170   1.322       .  A
N169        C173   1.349       .  A
N169       Cu177   2.082       .  S
N170        C171   1.342       .  A
N170       Cu176   2.065       .  S
C171        C172   1.379       .  A
C171        H174   1.082       .  S
C172        C173   1.385       .  A
C173        H175   1.082       .  S
Cu176       N179   2.064       .  S
Cu177       N187   2.082       .  S
Cu178       N180   2.074       .  S
Cu178       N186   2.075       .  S
N179        N180   1.320       .  A
N179        C183   1.343       .  A
N180        C181   1.347       .  A
C181        C182   1.385       .  A
C181        H184   1.082       .  S
C182        C183   1.383       .  A
C183        H185   1.082       .  S
N186        N187   1.324       .  A
N186        C190   1.344       .  A
N187        C188   1.346       .  A
C188        C189   1.383       .  A
C188        H191   1.082       .  S
C189        C190   1.381       .  A
C189        C439   1.481       .  S
C190        H192   1.082       .  S
N193        N194   1.322       .  A
N193        C197   1.347       .  A
N193       Cu201   2.077       .  S
N194        C195   1.341       .  A
N194       Cu200   2.061       .  S
C195        C196   1.379       .  A
C195        H198   1.082       .  S
C196        C197   1.383       .  A
C196        C244   1.463       .  S
C197        H199   1.082       .  S
Cu200       N203   2.061       .  S
Cu201       N211   2.078       .  S
Cu202       N204   2.073       .  S
Cu202       N210   2.074       .  S
N203        N204   1.321       .  A
N203        C207   1.342       .  A
N204        C205   1.346       .  A
C205        C206   1.385   1_655  A
C205        H208   1.082       .  S
C206        C207   1.381   1_455  A
C206        C230   1.469       .  S
C207        H209   1.082       .  S
N210        N211   1.324       .  A
N210        C214   1.345       .  A
N211        C212   1.345       .  A
C212        C213   1.381       .  A
C212        H215   1.082       .  S
C213        C214   1.380       .  A
C213        C441   1.479       .  S
C214        H216   1.082       .  S
N217        N218   1.322       .  A
N217        C221   1.348       .  A
N217       Cu225   2.077       .  S
N218        C219   1.341       .  A
N218       Cu224   2.064       .  S
C219        C220   1.379       .  A
C219        H222   1.082       .  S
C220        C221   1.384       .  A
C220        C268   1.464       .  S
C221        H223   1.082       .  S
Cu224       N227   2.063       .  S
Cu225       N235   2.078       .  S
Cu226       N228   2.067       .  S
Cu226       N234   2.068       .  S
N227        N228   1.321       .  A
N227        C231   1.342       .  A
N228        C229   1.346       .  A
C229        C230   1.384       .  A
C229        H232   1.082       .  S
C230        C231   1.382       .  A
C231        H233   1.082       .  S
N234        N235   1.324       .  A
N234        C238   1.343       .  A
N235        C236   1.345       .  A
C236        C237   1.382       .  A
C236        H239   1.082       .  S
C237        C238   1.379       .  A
C237        C406   1.478       .  S
C238        H240   1.082       .  S
N241        N242   1.323   1_545  A
N241        C245   1.347   1_554  A
N241       Cu249   2.075       .  S
N242        C243   1.342   1_554  A
N242       Cu248   2.068       .  S
C243        C244   1.380       .  A
C243        H246   1.082       .  S
C244        C245   1.382   1_565  A
C245        H247   1.082       .  S
Cu248       N251   2.068   1_565  S
Cu249       N259   2.075       .  S
Cu250       N252   2.066       .  S
Cu250       N258   2.066       .  S
N251        N252   1.320       .  A
N251        C255   1.343   1_545  A
N252        C253   1.345       .  A
C253        C254   1.384       .  A
C253        H256   1.082       .  S
C254        C255   1.384   1_545  A
C254        C278   1.471   1_655  S
C255        H257   1.082       .  S
N258        N259   1.323       .  A
N258        C262   1.342       .  A
N259        C260   1.346       .  A
C260        C261   1.382       .  A
C260        H263   1.082       .  S
C261        C262   1.379       .  A
C261        C509   1.477       .  S
C262        H264   1.082       .  S
N265        N266   1.321   1_545  A
N265        C269   1.348   1_545  A
N265       Cu273   2.076       .  S
N266        C267   1.341       .  A
N266       Cu272   2.064       .  S
C267        C268   1.380   1_554  A
C267        H270   1.082   1_554  S
C268        C269   1.384   1_556  A
C269        H271   1.082   1_564  S
Cu272       N275   2.065   1_565  S
Cu273       N283   2.078       .  S
Cu274       N276   2.072       .  S
Cu274       N282   2.072       .  S
N275        N276   1.321       .  A
N275        C279   1.343   1_545  A
N276        C277   1.346       .  A
C277        C278   1.385       .  A
C277        H280   1.082       .  S
C278        C279   1.382   1_545  A
C279        H281   1.082       .  S
N282        N283   1.324       .  A
N282        C286   1.344       .  A
N283        C284   1.345       .  A
C284        C285   1.381       .  A
C284        H287   1.082       .  S
C285        C286   1.380       .  A
C285        C474   1.478       .  S
C286        H288   1.082       .  S
N289        N290   1.321       .  A
N289        C293   1.348       .  A
N289       Cu297   2.080       .  S
N290        C291   1.341       .  A
N290       Cu296   2.062       .  S
C291        C292   1.379       .  A
C291        H294   1.082       .  S
C292        C293   1.385       .  A
C292        C340   1.465       .  S
C293        H295   1.082       .  S
Cu296       N299   2.061       .  S
Cu297       N307   2.081       .  S
Cu298       N300   2.067       .  S
Cu298       N306   2.068       .  S
N299        N300   1.320       .  A
N299        C303   1.342       .  A
N300        C301   1.345       .  A
C301        C302   1.384   1_655  A
C301        H304   1.082       .  S
C302        C303   1.382   1_455  A
C302        C326   1.468       .  S
C303        H305   1.082       .  S
N306        N307   1.325       .  A
N306        C310   1.344       .  A
N307        C308   1.345       .  A
C308        C309   1.381       .  A
C308        H311   1.082       .  S
C309        C310   1.379       .  A
C309        C440   1.477       .  S
C310        H312   1.082       .  S
N313        N314   1.322       .  A
N313        C317   1.348       .  A
N313       Cu321   2.080       .  S
N314        C315   1.341       .  A
N314       Cu320   2.063       .  S
C315        C316   1.379       .  A
C315        H318   1.082       .  S
C316        C317   1.383       .  A
C316        C364   1.463       .  S
C317        H319   1.082       .  S
Cu320       N323   2.062       .  S
Cu321       N331   2.081       .  S
Cu322       N324   2.065       .  S
Cu322       N330   2.066       .  S
N323        N324   1.320       .  A
N323        C327   1.342       .  A
N324        C325   1.345       .  A
C325        C326   1.383       .  A
C325        H328   1.082       .  S
C326        C327   1.382       .  A
C327        H329   1.082       .  S
N330        N331   1.323       .  A
N330        C334   1.343       .  A
N331        C332   1.346       .  A
C332        C333   1.384       .  A
C332        H335   1.082       .  S
C333        C334   1.380       .  A
C333        C405   1.480       .  S
C334        H336   1.082       .  S
N337        N338   1.322       .  A
N337        C341   1.348   1_554  A
N337       Cu345   2.076       .  S
N338        C339   1.342   1_554  A
N338       Cu344   2.071       .  S
C339        C340   1.381       .  A
C339        H342   1.082       .  S
C340        C341   1.383       .  A
C341        H343   1.082       .  S
Cu344       N347   2.071       .  S
Cu345       N355   2.076       .  S
Cu346       N348   2.070       .  S
Cu346       N354   2.070       .  S
N347        N348   1.321       .  A
N347        C351   1.343       .  A
N348        C349   1.346       .  A
C349        C350   1.384       .  A
C349        H352   1.082       .  S
C350        C351   1.384       .  A
C350        C374   1.473   1_655  S
C351        H353   1.082       .  S
N354        N355   1.324       .  A
N354        C358   1.343       .  A
N355        C356   1.346       .  A
C356        C357   1.382       .  A
C356        H359   1.082       .  S
C357        C358   1.379       .  A
C357        C508   1.477       .  S
C358        H360   1.082       .  S
N361        N362   1.322       .  A
N361        C365   1.347       .  A
N361       Cu369   2.076       .  S
N362        C363   1.341       .  A
N362       Cu368   2.064       .  S
C363        C364   1.380   1_554  A
C363        H366   1.082   1_554  S
C364        C365   1.384   1_556  A
C365        H367   1.082   1_554  S
Cu368       N371   2.064       .  S
Cu369       N379   2.077       .  S
Cu370       N372   2.080       .  S
Cu370       N378   2.081       .  S
N371        N372   1.321       .  A
N371        C375   1.343       .  A
N372        C373   1.347       .  A
C373        C374   1.386       .  A
C373        H376   1.082       .  S
C374        C375   1.382       .  A
C375        H377   1.082       .  S
N378        N379   1.324       .  A
N378        C382   1.346       .  A
N379        C380   1.345       .  A
C380        C381   1.381       .  A
C380        H383   1.082       .  S
C381        C382   1.381       .  A
C381        C475   1.481       .  S
C382        H384   1.082       .  S
N385        C390   1.354       .  A
N385        C389   1.354       .  A
N385        H417   1.036       .  S
N386        C393   1.352       .  A
N386        C394   1.352       .  A
N387        C392   1.354       .  A
N387        C391   1.354       .  A
N387        H418   1.036       .  S
N388        C395   1.351       .  A
N388        C396   1.351       .  A
C389        C397   1.388       .  A
C389        C405   1.417       .  A
C390        C406   1.416       .  A
C390        C398   1.387       .  A
C391        C399   1.387       .  A
C391        C408   1.415       .  A
C392        C407   1.415       .  A
C392        C400   1.387       .  A
C393        C405   1.414       .  A
C393        C401   1.387       .  A
C394        C408   1.413       .  A
C394        C402   1.386       .  A
C395        C403   1.387       .  A
C395        C406   1.413       .  A
C396        C404   1.386       .  A
C396        C407   1.412       .  A
C397        C398   1.373       .  A
C397        H409   1.081       .  S
C398        H410   1.081       .  S
C399        C400   1.374       .  A
C399        H411   1.082       .  S
C400        H412   1.082       .  S
C401        C402   1.372       .  A
C401        H413   1.082       .  S
C402        H414   1.082       .  S
C403        C404   1.371       .  A
C403        H415   1.082       .  S
C404        H416   1.082       .  S
N419        C424   1.353       .  A
N419        C423   1.354       .  A
N419        H451   1.035       .  S
N420        C427   1.353       .  A
N420        C428   1.352       .  A
N421        C426   1.353       .  A
N421        C425   1.354       .  A
N421        H452   1.035       .  S
N422        C429   1.351       .  A
N422        C430   1.352       .  A
C423        C431   1.388       .  A
C423        C439   1.416       .  A
C424        C440   1.414       .  A
C424        C432   1.386       .  A
C425        C433   1.388       .  A
C425        C442   1.418       .  A
C426        C441   1.416       .  A
C426        C434   1.386       .  A
C427        C439   1.416       .  A
C427        C435   1.386       .  A
C428        C442   1.417       .  A
C428        C436   1.387       .  A
C429        C437   1.387       .  A
C429        C440   1.413       .  A
C430        C438   1.387       .  A
C430        C441   1.413       .  A
C431        C432   1.374       .  A
C431        H443   1.081       .  S
C432        H444   1.082       .  S
C433        C434   1.374       .  A
C433        H445   1.081       .  S
C434        H446   1.082       .  S
C435        C436   1.371       .  A
C435        H447   1.082       .  S
C436        H448   1.082       .  S
C437        C438   1.371       .  A
C437        H449   1.082       .  S
C438        H450   1.082       .  S
N453        C458   1.354       .  A
N453        C457   1.355       .  A
N453        H485   1.035       .  S
N454        C461   1.351       .  A
N454        C462   1.352       .  A
N455        C460   1.353       .  A
N455        C459   1.353       .  A
N455        H486   1.029       .  S
N456        C463   1.351       .  A
N456        C464   1.352       .  A
C457        C465   1.388       .  A
C457        C473   1.418       .  A
C458        C474   1.416       .  A
C458        C466   1.387       .  A
C459        C467   1.388       .  A
C459        C476   1.421       .  A
C460        C475   1.420       .  A
C460        C468   1.387       .  A
C461        C473   1.416       .  A
C461        C469   1.386       .  A
C462        C476   1.419       .  A
C462        C470   1.388       .  A
C463        C471   1.387       .  A
C463        C474   1.414       .  A
C464        C472   1.387       .  A
C464        C475   1.417       .  A
C465        C466   1.373       .  A
C465        H477   1.081       .  S
C466        H478   1.082       .  S
C467        C468   1.374       .  A
C467        H479   1.082       .  S
C468        H480   1.082       .  S
C469        C470   1.371       .  A
C469        H481   1.082       .  S
C470        H482   1.082       .  S
C471        C472   1.371       .  A
C471        H483   1.082       .  S
C472        H484   1.082       .  S
N487        C492   1.353       .  A
N487        C491   1.352       .  A
N487        H519   1.037       .  S
N488        C495   1.351       .  A
N488        C496   1.351       .  A
N489        C494   1.353       .  A
N489        C493   1.352       .  A
N489        H520   1.037       .  S
N490        C497   1.351       .  A
N490        C498   1.351       .  A
C491        C499   1.387       .  A
C491        C507   1.414       .  A
C492        C508   1.414       .  A
C492        C500   1.388       .  A
C493        C501   1.387       .  A
C493        C510   1.414       .  A
C494        C509   1.415       .  A
C494        C502   1.388       .  A
C495        C507   1.412       .  A
C495        C503   1.387       .  A
C496        C510   1.412       .  A
C496        C504   1.386       .  A
C497        C505   1.386       .  A
C497        C508   1.413       .  A
C498        C506   1.387       .  A
C498        C509   1.414       .  A
C499        C500   1.374       .  A
C499        H511   1.082       .  S
C500        H512   1.082       .  S
C501        C502   1.374       .  A
C501        H513   1.082       .  S
C502        H514   1.082       .  S
C503        C504   1.371       .  A
C503        H515   1.082       .  S
C504        H516   1.082       .  S
C505        C506   1.371       .  A
C505        H517   1.082       .  S
C506        H518   1.082       .  S
