geometry optimzed in LAMMPS
_audit_creation_date              2020-12-01 
_audit_creation_method            'lammps2cif' 
_symmetry_space_group_name_H-M    'P1' 
_symmetry_Int_Tables_number       1 
_symmetry_cell_setting            triclinic 
loop_ 
_symmetry_equiv_pos_as_xyz 
  x,y,z 
_cell_length_a                    73.02415856 
_cell_length_b                    65.23103832725762 
_cell_length_c                    80.03329626600679 
_cell_angle_alpha                 90.82275034368091 
_cell_angle_beta                  90.02172604040916 
_cell_angle_gamma                 89.9665489830381 
loop_ 
_atom_site_label 
_atom_site_type_symbol 
_atom_site_fract_x 
_atom_site_fract_y 
_atom_site_fract_z 
_atom_site_charge 
N1          N  0.68052785  0.11274925  0.48899139    -0.27200
N2          N  0.66710141  0.10821471  0.47849452    -0.35100
C3          C  0.66179314  0.08874400  0.48083977     0.01100
C4          C  0.67251003  0.08046166  0.49331178     0.07200
C5          C  0.68428590  0.09612666  0.49816410    -0.05900
H6          H  0.65102818  0.08114592  0.47383240     0.07800
H7          H  0.69456548  0.09564080  0.50788720     0.09000
Cu8        Cu  0.65619259  0.12864609  0.46165259     0.44200
Cu9        Cu  0.69218419  0.14178061  0.49098694     0.42000
Cu10       Cu  0.66881221  0.18128548  0.46699131     0.43900
N11         N  0.64466275  0.15207335  0.44807272    -0.34600
N12         N  0.64857687  0.17163605  0.45061088    -0.28800
C13         C  0.63754577  0.18311112  0.44104127    -0.04900
C14         C  0.62633976  0.17003885  0.43188483     0.07300
C15         C  0.63127818  0.15049238  0.43662845     0.01100
H16         H  0.63769331  0.19968776  0.44077689     0.08700
H17         H  0.62508097  0.13619669  0.43259013     0.07800
N18         N  0.69031001  0.18691703  0.48325339    -0.36000
N19         N  0.69899382  0.17274917  0.49184883    -0.28200
C20         C  0.71191429  0.18190205  0.50135215    -0.03500
C21         C  0.71131243  0.20288717  0.49864803     0.05100
C22         C  0.69743860  0.20536913  0.48701755     0.03200
H23         H  0.72075197  0.17382973  0.50987735     0.08300
H24         H  0.69269171  0.21951076  0.48162840     0.07200
N25         N  0.81155037  0.40649115  0.56189035    -0.27200
N26         N  0.82587957  0.41162668  0.57110580    -0.35100
C27         C  0.82935541  0.43165477  0.56933923     0.01100
C28         C  0.81651788  0.43965414  0.55855900     0.07200
C29         C  0.80532699  0.42330512  0.55411858    -0.05900
H30         H  0.84063727  0.43969659  0.57524745     0.07800
H31         H  0.79413567  0.42339323  0.54525712     0.09000
Cu32       Cu  0.84065890  0.39124482  0.58515160     0.44200
Cu33       Cu  0.80295083  0.37629905  0.55933283     0.42000
Cu34       Cu  0.82940248  0.33797123  0.58319088     0.43900
N35         N  0.85388115  0.36947680  0.59912077    -0.34600
N36         N  0.84994967  0.34973331  0.59863805    -0.28800
C37         C  0.86131897  0.33989785  0.60912309    -0.04900
C38         C  0.87300624  0.35423676  0.61649626     0.07300
C39         C  0.86772861  0.37281038  0.60981080     0.01100
H40         H  0.86131853  0.32349830  0.61092312     0.08700
H41         H  0.87346823  0.38778928  0.61241670     0.07800
N42         N  0.80814540  0.33109322  0.56665508    -0.36000
N43         N  0.79872153  0.34482879  0.55820092    -0.28200
C44         C  0.78609416  0.33511807  0.54878876    -0.03500
C45         C  0.78749218  0.31418860  0.55139302     0.05100
C46         C  0.80169026  0.31229189  0.56281868     0.03200
H47         H  0.77667933  0.34289888  0.54060339     0.08300
H48         H  0.80692997  0.29833151  0.56815053     0.07200
N49         N  0.67245490  0.90576720  0.54437573    -0.27200
N50         N  0.65625846  0.91065377  0.55062506    -0.35100
C51         C  0.65207510  0.92995635  0.54641080     0.01100
C52         C  0.66640441  0.93778214  0.53718671     0.07200
C53         C  0.67916628  0.92204634  0.53619523    -0.05900
H54         H  0.63965252  0.93785003  0.55009999     0.07800
H55         H  0.69215824  0.92225736  0.52970773     0.09000
Cu56       Cu  0.64101162  0.89138507  0.56547333     0.44200
Cu57       Cu  0.68361547  0.87655090  0.54664163     0.42000
Cu58       Cu  0.65789727  0.84055737  0.57278123     0.43900
N59         N  0.62931337  0.87161841  0.58240071    -0.34600
N60         N  0.63551967  0.85301866  0.58538619    -0.28800
C61         C  0.62521061  0.84460166  0.59744079    -0.04900
C62         C  0.61182688  0.85864496  0.60232863     0.07300
C63         C  0.61497606  0.87558532  0.59242132     0.01100
H64         H  0.62738629  0.82938402  0.60223324     0.08700
H65         H  0.60762958  0.88996970  0.59251059     0.07800
N66         N  0.68004564  0.83239747  0.55775072    -0.36000
N67         N  0.68937452  0.84537751  0.54849265    -0.28200
C68         C  0.70219755  0.83492501  0.53983510    -0.03500
C69         C  0.70095863  0.81428245  0.54373604     0.05100
C70         C  0.68671655  0.81337334  0.55520250     0.03200
H71         H  0.71136275  0.84192731  0.53098715     0.08300
H72         H  0.68131421  0.79988864  0.56114739     0.07200
N73         N  0.80953990  0.60997946  0.50031751    -0.27200
N74         N  0.82505579  0.60465522  0.49298102    -0.35100
C75         C  0.83024137  0.58617380  0.49842918     0.01100
C76         C  0.81727397  0.57942456  0.50968281     0.07200
C77         C  0.80429761  0.59490090  0.51054842    -0.05900
H78         H  0.84233830  0.57807094  0.49417243     0.07800
H79         H  0.79205411  0.59530058  0.51815143     0.09000
Cu80       Cu  0.83815605  0.62243239  0.47556744     0.44200
Cu81       Cu  0.79692487  0.63790157  0.49641013     0.42000
Cu82       Cu  0.81976790  0.67264434  0.46747708     0.43900
N83         N  0.84929630  0.64225046  0.45849598    -0.34600
N84         N  0.84275995  0.66067542  0.45535181    -0.28800
C85         C  0.85359664  0.66960056  0.44393547    -0.04900
C86         C  0.86767454  0.65610436  0.43973645     0.07300
C87         C  0.86434445  0.63890950  0.44924879     0.01100
H88         H  0.85154553  0.68494284  0.43935031     0.08700
H89         H  0.87224146  0.62490374  0.44959451     0.07800
N90         N  0.79735528  0.68066100  0.48235915    -0.36000
N91         N  0.78906266  0.66797230  0.49262924    -0.28200
C92         C  0.77582701  0.67815095  0.50095421    -0.03500
C93         C  0.77569501  0.69835006  0.49578450     0.05100
C94         C  0.78956568  0.69929081  0.48392276     0.03200
H95         H  0.76743935  0.67139478  0.51054266     0.08300
H96         H  0.79399155  0.71257850  0.47709466     0.07200
N97         N  0.30947695  0.90657946  0.54311081    -0.27200
N98         N  0.32338424  0.91271415  0.55246576    -0.35100
C99         C  0.32774698  0.93204108  0.54863313     0.01100
C100        C  0.31592347  0.93853458  0.53631888     0.07200
C101        C  0.30442773  0.92203671  0.53313481    -0.05900
H102        H  0.33867254  0.94073549  0.55448989     0.07800
H103        H  0.29350545  0.92116228  0.52401580     0.09000
Cu104      Cu  0.33608796  0.89467961  0.56984121     0.44200
Cu105      Cu  0.29905434  0.87707749  0.54421958     0.42000
Cu106      Cu  0.32291734  0.84196775  0.57269226     0.43900
N107        N  0.34853129  0.87438076  0.58565233    -0.34600
N108        N  0.34398799  0.85486708  0.58675657    -0.28800
C109        C  0.35512445  0.84588244  0.59789438    -0.04900
C110        C  0.36729170  0.86052981  0.60403305     0.07300
C111        C  0.36259689  0.87840519  0.59595023     0.01100
H112        H  0.35457411  0.82982225  0.60102426     0.08700
H113        H  0.36887764  0.89333637  0.59735535     0.07800
N114        N  0.30095330  0.83381589  0.55747594    -0.36000
N115        N  0.29236403  0.84646720  0.54735702    -0.28200
C116        C  0.27909370  0.83614246  0.53921995    -0.03500
C117        C  0.27925719  0.81592357  0.54438137     0.05100
C118        C  0.29333806  0.81511405  0.55601486     0.03200
H119        H  0.27014011  0.84299309  0.53010434     0.08300
H120        H  0.29804594  0.80187130  0.56275709     0.07200
N121        N  0.17688239  0.60693622  0.49646528    -0.27200
N122        N  0.16189164  0.60129733  0.48837418    -0.35100
C123        C  0.15829106  0.58157909  0.49165427     0.01100
C124        C  0.17171905  0.57432301  0.50225847     0.07200
C125        C  0.18336595  0.59080692  0.50498606    -0.05900
H126        H  0.14668373  0.57317563  0.48669695     0.07800
H127        H  0.19526389  0.59127475  0.51304104     0.09000
Cu128      Cu  0.14678317  0.62058467  0.47334229     0.44200
Cu129      Cu  0.18662830  0.63684106  0.49633862     0.42000
Cu130      Cu  0.16132704  0.67293316  0.47006303     0.43900
N131        N  0.13397849  0.64175378  0.45823156    -0.34600
N132        N  0.13930357  0.66098448  0.45680220    -0.28800
C133        C  0.12812828  0.67053257  0.44600726    -0.04900
C134        C  0.11505656  0.65659639  0.44038059     0.07300
C135        C  0.11932059  0.63850376  0.44843944     0.01100
H136        H  0.12934182  0.68649481  0.44272110     0.08700
H137        H  0.11245195  0.62388155  0.44725203     0.07800
N138        N  0.18294821  0.68098096  0.48562632    -0.36000
N139        N  0.19204295  0.66805871  0.49513307    -0.28200
C140        C  0.20470596  0.67854057  0.50396562    -0.03500
C141        C  0.20359116  0.69910697  0.49984818     0.05100
C142        C  0.18960173  0.69997126  0.48814416     0.03200
H143        H  0.21397806  0.67156816  0.51275499     0.08300
H144        H  0.18429299  0.71341913  0.48206198     0.07200
N145        N  0.30996101  0.10986193  0.48040286    -0.27200
N146        N  0.32646551  0.10606366  0.47440469    -0.35100
C147        C  0.33129148  0.08682141  0.47810972     0.01100
C148        C  0.31706991  0.07798370  0.48684300     0.07200
C149        C  0.30370696  0.09301827  0.48802310    -0.05900
H150        H  0.34421629  0.07984199  0.47466576     0.07800
H151        H  0.29070369  0.09206743  0.49443649     0.09000
Cu152      Cu  0.34163068  0.12719793  0.46157995     0.44200
Cu153      Cu  0.29794052  0.13844828  0.47901434     0.42000
Cu154      Cu  0.32349320  0.17816288  0.45662695     0.43900
N155        N  0.35430317  0.14943081  0.44778943    -0.34600
N156        N  0.34779938  0.16808879  0.44556403    -0.28800
C157        C  0.35953275  0.17841339  0.43577510    -0.04900
C158        C  0.37413807  0.16556830  0.43176919     0.07300
C159        C  0.37021281  0.14732534  0.43960994     0.01100
H160        H  0.35768654  0.19417218  0.43210724     0.08700
H161        H  0.37817369  0.13334293  0.43931951     0.07800
N162        N  0.29992240  0.18352612  0.47075451    -0.36000
N163        N  0.29092066  0.16913829  0.47884460    -0.28200
C164        C  0.27736499  0.17785283  0.48778904    -0.03500
C165        C  0.27770607  0.19876855  0.48522036     0.05100
C166        C  0.29214746  0.20179925  0.47427309     0.03200
H167        H  0.26815896  0.16952028  0.49580736     0.08300
H168        H  0.29716072  0.21630262  0.46975505     0.07200
N169        N  0.17992222  0.40013570  0.55269801    -0.27200
N170        N  0.16643311  0.40561397  0.56278511    -0.35100
C171        C  0.16281823  0.42560288  0.56084748     0.01100
C172        C  0.17476697  0.43321059  0.54907439     0.07200
C173        C  0.18551369  0.41666526  0.54418650    -0.05900
H174        H  0.15215738  0.43393196  0.56743331     0.07800
H175        H  0.19601947  0.41645311  0.53465731     0.09000
Cu176      Cu  0.15343965  0.38553493  0.57846739     0.44200
Cu177      Cu  0.18821669  0.36983714  0.55045346     0.42000
Cu178      Cu  0.16507149  0.33200304  0.57772668     0.43900
N179        N  0.14163153  0.36433201  0.59394361    -0.34600
N180        N  0.14559800  0.34458381  0.59393338    -0.28800
C181        C  0.13478324  0.33528364  0.60520070    -0.04900
C182        C  0.12344103  0.34999262  0.61256980     0.07300
C183        C  0.12835884  0.36819817  0.60509509     0.01100
H184        H  0.13480448  0.31897605  0.60745022     0.08700
H185        H  0.12265316  0.38327455  0.60736379     0.07800
N186        N  0.18443818  0.32484120  0.55939725    -0.36000
N187        N  0.19244888  0.33839739  0.54965498    -0.28200
C188        C  0.20372801  0.32853554  0.53900509    -0.03500
C189        C  0.20293414  0.30773771  0.54213499     0.05100
C190        C  0.19057495  0.30599449  0.55519983     0.03200
H191        H  0.21204616  0.33611308  0.52978123     0.08300
H192        H  0.18611335  0.29204748  0.56110059     0.07200
C193        C  0.00883517  0.67835518  0.36394653     0.03200
C194        C  0.99244465  0.67659535  0.37282521    -0.12900
C195        C  0.97547309  0.67859390  0.36492284     0.00700
C196        C  0.97493634  0.68331792  0.34786483    -0.11500
C197        C  0.99129421  0.68532175  0.33861031     0.03200
C198        C  0.00826223  0.68289074  0.34686920    -0.10900
H199        H  0.99293179  0.67338166  0.38607490     0.08800
H200        H  0.96178849  0.68500752  0.34177704     0.06300
H201        H  0.02097699  0.68360992  0.33994010     0.06200
C202        C  0.99488530  0.69813317  0.21388159     0.03200
C203        C  0.97922410  0.69761422  0.20356434    -0.12900
C204        C  0.98091436  0.69761112  0.18608571     0.00700
C205        C  0.99835185  0.69852017  0.17887691    -0.11500
C206        C  0.01412175  0.69858836  0.18886779     0.03200
C207        C  0.01232623  0.69827125  0.20631418    -0.10900
H208        H  0.96566781  0.69734720  0.20903529     0.08800
H209        H  0.99967754  0.69801129  0.16538330     0.06300
H210        H  0.02457682  0.69780299  0.21393049     0.06200
C211        C  0.50021185  0.19413644  0.33413647     0.03200
C212        C  0.51694833  0.19553143  0.34282240    -0.12900
C213        C  0.51743981  0.19479118  0.36030482     0.00700
C214        C  0.50111316  0.19285839  0.36923422    -0.11500
C215        C  0.48431167  0.19120585  0.36088796     0.03200
C216        C  0.48386274  0.19210062  0.34335428    -0.10900
H217        H  0.52969628  0.19709678  0.33604431     0.08800
H218        H  0.50155605  0.19182174  0.38273991     0.06300
H219        H  0.47090005  0.19022979  0.33692869     0.06200
C220        C  0.49637919  0.18619194  0.20887109     0.03200
C221        C  0.47915846  0.18326478  0.20114895    -0.12900
C222        C  0.47799340  0.17821134  0.18408274     0.00700
C223        C  0.49405505  0.17627964  0.17466738    -0.11500
C224        C  0.51128194  0.17909777  0.18201962     0.03200
C225        C  0.51235623  0.18454445  0.19901240    -0.10900
H226        H  0.46671280  0.18375847  0.20849598     0.08800
H227        H  0.49310814  0.17230692  0.16149295     0.06300
H228        H  0.52570562  0.18678109  0.20463445     0.06200
N229        N  0.81552831  0.61332242  0.05533168    -0.27200
N230        N  0.83106581  0.60920306  0.06304616    -0.35100
C231        C  0.83530712  0.58938077  0.06061944     0.01100
C232        C  0.82176528  0.58036653  0.05093993     0.07200
C233        C  0.80932360  0.59598471  0.04788345    -0.05900
H234        H  0.84751767  0.58214699  0.06542842     0.07800
H235        H  0.79715283  0.59504263  0.04020011     0.09000
Cu236      Cu  0.84648995  0.63064516  0.07591640     0.44200
Cu237      Cu  0.80529912  0.64311300  0.05407581     0.42000
Cu238      Cu  0.83587107  0.68369825  0.07110397     0.43900
N239        N  0.86071621  0.65375084  0.08800960    -0.34600
N240        N  0.85737286  0.67345411  0.08594897    -0.28800
C241        C  0.86897738  0.68440811  0.09566000    -0.04900
C242        C  0.87993346  0.67083941  0.10438667     0.07300
C243        C  0.87427714  0.65155892  0.09917073     0.01100
H244        H  0.86898432  0.70095801  0.09674242     0.08700
H245        H  0.87959175  0.63695031  0.10318864     0.07800
N246        N  0.81191999  0.68906032  0.05763739    -0.36000
N247        N  0.80078992  0.67456201  0.05193710    -0.28200
C248        C  0.78682991  0.68340811  0.04376571    -0.03500
C249        C  0.78918815  0.70454771  0.04421405     0.05100
C250        C  0.80528335  0.70746214  0.05320518     0.03200
H251        H  0.77593944  0.67488070  0.03772587     0.08300
H252        H  0.81196970  0.72185677  0.05611670     0.07200
N253        N  0.67776638  0.90076548  0.98388331    -0.27200
N254        N  0.66264482  0.90470619  0.97545079    -0.35100
C255        C  0.65748810  0.92416742  0.97851153     0.01100
C256        C  0.67004852  0.93312222  0.98930109     0.07200
C257        C  0.68281148  0.91784461  0.99239329    -0.05900
H258        H  0.64549831  0.93129322  0.97316897     0.07800
H259        H  0.69456489  0.91888174  0.00059464     0.09000
Cu260      Cu  0.64955914  0.88345025  0.96024260     0.44200
Cu261      Cu  0.68947366  0.87158328  0.98403102     0.42000
Cu262      Cu  0.66513224  0.83102755  0.96005760     0.43900
N263        N  0.63745641  0.86042876  0.94609216    -0.34600
N264        N  0.64262097  0.84100790  0.94620794    -0.28800
C265        C  0.63131983  0.83008504  0.93613928    -0.04900
C266        C  0.61863312  0.84340406  0.92923203     0.07300
C267        C  0.62301737  0.86247498  0.93586107     0.01100
H268        H  0.63240658  0.81374538  0.93384978     0.08700
H269        H  0.61600116  0.87680284  0.93368496     0.07800
N270        N  0.68791572  0.82603595  0.97532833    -0.36000
N271        N  0.69663103  0.84059363  0.98382626    -0.28200
C272        C  0.71014173  0.83199772  0.99277994    -0.03500
C273        C  0.71006424  0.81093951  0.98988783     0.05100
C274        C  0.69572901  0.80783956  0.97867734     0.03200
H275        H  0.71906893  0.84056755  0.00107872     0.08300
H276        H  0.69103373  0.79340517  0.97344872     0.07200
N277        N  0.67160830  0.10966785  0.04029564    -0.27200
N278        N  0.65714591  0.10409827  0.04902545    -0.35100
C279        C  0.65281653  0.08461029  0.04511053     0.01100
C280        C  0.66528479  0.07735408  0.03344737     0.07200
C281        C  0.67708073  0.09364750  0.03071362    -0.05900
H282        H  0.64170978  0.07617359  0.05072561     0.07800
H283        H  0.68867019  0.09389358  0.02230279     0.09000
Cu284      Cu  0.64462357  0.12283115  0.06655357     0.44200
Cu285      Cu  0.68239204  0.13918915  0.04199406     0.42000
Cu286      Cu  0.65993797  0.17502291  0.07178194     0.43900
N287        N  0.63395498  0.14290299  0.08413035    -0.34600
N288        N  0.63929113  0.16210687  0.08622342    -0.28800
C289        C  0.62910860  0.17085454  0.09843699    -0.04900
C290        C  0.61674015  0.15639437  0.10424620     0.07300
C291        C  0.62037033  0.13886342  0.09484963     0.01100
H292        H  0.63034246  0.18669234  0.10245419     0.08700
H293        H  0.61361248  0.12416201  0.09555636     0.07800
N294        N  0.68120333  0.18294191  0.05570155    -0.36000
N295        N  0.68924501  0.17002706  0.04511734    -0.28200
C296        C  0.70235884  0.18006916  0.03674829    -0.03500
C297        C  0.70273237  0.20033701  0.04226627     0.05100
C298        C  0.68906898  0.20151470  0.05431715     0.03200
H299        H  0.71109654  0.17293682  0.02743935     0.08300
H300        H  0.68500247  0.21489037  0.06154242     0.07200
N301        N  0.81739144  0.40268446  0.00298316    -0.27200
N302        N  0.83146942  0.40820410  0.99370625    -0.35100
C303        C  0.83567395  0.42784047  0.99713822     0.01100
C304        C  0.82354325  0.43523835  0.00903114     0.07200
C305        C  0.81205622  0.41889174  0.01242641    -0.05900
H306        H  0.84651959  0.43624931  0.99109367     0.07800
H307        H  0.80082517  0.41870962  0.02123441     0.09000
Cu308      Cu  0.84396384  0.38938338  0.97615934     0.44200
Cu309      Cu  0.80682493  0.37304674  0.00239062     0.42000
Cu310      Cu  0.82906834  0.33697810  0.97314703     0.43900
N311        N  0.85462462  0.36857843  0.95907629    -0.34600
N312        N  0.84952279  0.34917489  0.95808145    -0.28800
C313        C  0.85973307  0.33957440  0.94634178    -0.04900
C314        C  0.87176139  0.35369341  0.93955163     0.07300
C315        C  0.86803224  0.37192753  0.94795361     0.01100
H316        H  0.85855035  0.32347484  0.94310370     0.08700
H317        H  0.87499626  0.38643420  0.94657064     0.07800
N318        N  0.80802398  0.32912231  0.98947152    -0.36000
N319        N  0.80003383  0.34213905  0.99999315    -0.28200
C320        C  0.78717006  0.33210583  0.00870165    -0.03500
C321        C  0.78692560  0.31172887  0.00345303     0.05100
C322        C  0.80037990  0.31049749  0.99120612     0.03200
H323        H  0.77852598  0.33928906  0.01805966     0.08300
H324        H  0.80449913  0.29703880  0.98411235     0.07200
C325        C  0.99787965  0.32857410  0.83982998     0.03200
C326        C  0.98088632  0.32952172  0.84815268    -0.12900
C327        C  0.98014522  0.33185124  0.86557184     0.00700
C328        C  0.99637982  0.33335188  0.87475878    -0.11500
C329        C  0.01349431  0.33291449  0.86676978     0.03200
C330        C  0.01415702  0.33013876  0.84931778    -0.10900
H331        H  0.96822370  0.32902871  0.84109849     0.08800
H332        H  0.99561740  0.33533970  0.88821408     0.06300
H333        H  0.02732792  0.32972555  0.84310666     0.06200
C334        C  0.99976531  0.32496027  0.71436697     0.03200
C335        C  0.98294854  0.32644826  0.70578000    -0.12900
C336        C  0.98261524  0.33002180  0.68852699     0.00700
C337        C  0.99914496  0.33168116  0.67978671    -0.11500
C338        C  0.01598902  0.32977604  0.68798926     0.03200
C339        C  0.01625462  0.32616532  0.70522916    -0.10900
H340        H  0.97015545  0.32612976  0.71262249     0.08800
H341        H  0.99889122  0.33475782  0.66650723     0.06300
H342        H  0.02930553  0.32508213  0.71160016     0.06200
N343        N  0.17022338  0.61133809  0.05380453    -0.27200
N344        N  0.15820712  0.60642377  0.06543939    -0.35100
C345        C  0.15539456  0.58605556  0.06486295     0.01100
C346        C  0.16631297  0.57763006  0.05240238     0.07200
C347        C  0.17557254  0.59412541  0.04568010    -0.05900
H348        H  0.14624073  0.57795389  0.07308972     0.07800
H349        H  0.18522364  0.59371258  0.03542779     0.09000
Cu350      Cu  0.14630756  0.62739557  0.08190023     0.44200
Cu351      Cu  0.17823828  0.64136783  0.04916337     0.42000
Cu352      Cu  0.15580711  0.68072014  0.07416335     0.43900
N353        N  0.13588822  0.65129082  0.09644126    -0.34600
N354        N  0.13898436  0.67079571  0.09321533    -0.28800
C355        C  0.12957886  0.68255599  0.10413086    -0.04900
C356        C  0.12018426  0.66987834  0.11488126     0.07300
C357        C  0.12455498  0.65012431  0.10965832     0.01100
H358        H  0.12947436  0.69913900  0.10410957     0.08700
H359        H  0.11927252  0.63596592  0.11461886     0.07800
N360        N  0.17489731  0.68693736  0.05580400    -0.36000
N361        N  0.18324442  0.67262507  0.04678291    -0.28200
C362        C  0.19512084  0.68167872  0.03638176    -0.03500
C363        C  0.19427510  0.70278811  0.03895190     0.05100
C364        C  0.18122686  0.70544537  0.05140730     0.03200
H365        H  0.20368190  0.67336063  0.02760051     0.08300
H366        H  0.17676026  0.71970996  0.05711621     0.07200
N367        N  0.30279371  0.89940367  0.98242917    -0.27200
N368        N  0.31941876  0.90292508  0.97666674    -0.35100
C369        C  0.32476590  0.92175578  0.98167312     0.01100
C370        C  0.31077959  0.93066129  0.99100456     0.07200
C371        C  0.29700874  0.91601226  0.99114477    -0.05900
H372        H  0.33787882  0.92847109  0.97867458     0.07800
H373        H  0.28400641  0.91705480  0.99757512     0.09000
Cu374      Cu  0.33380677  0.88174501  0.96215199     0.44200
Cu375      Cu  0.28998643  0.87122624  0.97906536     0.42000
Cu376      Cu  0.31381833  0.83185644  0.95347126     0.43900
N377        N  0.34544133  0.85988318  0.94629767    -0.34600
N378        N  0.33815805  0.84181767  0.94264147    -0.28800
C379        C  0.34927678  0.83179076  0.93180039    -0.04900
C380        C  0.36434643  0.84412979  0.92862099     0.07300
C381        C  0.36131882  0.86179756  0.93803449     0.01100
H382        H  0.34680177  0.81647589  0.92695218     0.08700
H383        H  0.36996690  0.87523278  0.93879838     0.07800
N384        N  0.29053927  0.82653397  0.96788677    -0.36000
N385        N  0.28201304  0.84073180  0.97693190    -0.28200
C386        C  0.26850019  0.83187336  0.98564677    -0.03500
C387        C  0.26842005  0.81100117  0.98205516     0.05100
C388        C  0.28260667  0.80827404  0.97065027     0.03200
H389        H  0.25995211  0.84004581  0.99452918     0.08300
H390        H  0.28730224  0.79401244  0.96510034     0.07200
N391        N  0.31104467  0.10351527  0.05033239    -0.27200
N392        N  0.32522319  0.09740662  0.05923259    -0.35100
C393        C  0.32824269  0.07739058  0.05612865     0.01100
C394        C  0.31525367  0.07036755  0.04479403     0.07200
C395        C  0.30449946  0.08738602  0.04144208    -0.05900
H396        H  0.33911137  0.06859079  0.06177460     0.07800
H397        H  0.29315832  0.08815425  0.03277198     0.09000
Cu398      Cu  0.33967727  0.11650511  0.07543112     0.44200
Cu399      Cu  0.30249343  0.13401309  0.05032356     0.42000
Cu400      Cu  0.32615788  0.16973927  0.07899108     0.43900
N401        N  0.35129602  0.13725684  0.09219768    -0.34600
N402        N  0.34632871  0.15666517  0.09371706    -0.28800
C403        C  0.35677490  0.16583140  0.10550722    -0.04900
C404        C  0.36899860  0.15149304  0.11171929     0.07300
C405        C  0.36498324  0.13353629  0.10294079     0.01100
H406        H  0.35583732  0.18190306  0.10889454     0.08700
H407        H  0.37156033  0.11877384  0.10406246     0.07800
N408        N  0.30620463  0.17839212  0.06197309    -0.36000
N409        N  0.29769583  0.16550663  0.05169854    -0.28200
C410        C  0.28578973  0.17608874  0.04234003    -0.03500
C411        C  0.28674458  0.19669181  0.04688618     0.05100
C412        C  0.29991531  0.19748953  0.05939285     0.03200
H413        H  0.27721421  0.16915707  0.03281057     0.08300
H414        H  0.30456591  0.21089412  0.06626685     0.07200
N415        N  0.18038872  0.40112361  0.00330978    -0.27200
N416        N  0.16387876  0.40505084  0.99740374    -0.35100
C417        C  0.15842111  0.42355493  0.00302513     0.01100
C418        C  0.17222272  0.43187334  0.01282288     0.07200
C419        C  0.18603433  0.41726818  0.01267184    -0.05900
H420        H  0.14555381  0.43070188  0.99977665     0.07800
H421        H  0.19908751  0.41819504  0.01903586     0.09000
Cu422      Cu  0.14994309  0.38576924  0.98104357     0.44200
Cu423      Cu  0.19339247  0.37325556  0.99881650     0.42000
Cu424      Cu  0.16866755  0.33636791  0.97126511     0.43900
N425        N  0.13865832  0.36604162  0.96335314    -0.34600
N426        N  0.14542561  0.34782114  0.95945069    -0.28800
C427        C  0.13489422  0.33916874  0.94741280    -0.04900
C428        C  0.12077075  0.35265235  0.94359885     0.07300
C429        C  0.12375922  0.36952036  0.95399876     0.01100
H430        H  0.13722865  0.32409051  0.94203161     0.08700
H431        H  0.11582978  0.38350424  0.95471117     0.07800
N432        N  0.19153941  0.32936892  0.98575728    -0.36000
N433        N  0.20049697  0.34262647  0.99538755    -0.28200
C434        C  0.21374840  0.33266213  0.00366712    -0.03500
C435        C  0.21316894  0.31205115  0.99916064     0.05100
C436        C  0.19890430  0.31064811  0.98769974     0.03200
H437        H  0.22259726  0.33988263  0.01284073     0.08300
H438        H  0.19384823  0.29698672  0.98144981     0.07200
C439        C  0.49136575  0.81848460  0.83082554     0.03200
C440        C  0.50841804  0.81881650  0.83909843    -0.12900
C441        C  0.50932054  0.81868107  0.85661590     0.00700
C442        C  0.49310583  0.81843595  0.86592059    -0.11500
C443        C  0.47592435  0.81912700  0.85803535     0.03200
C444        C  0.47517334  0.81865195  0.84046643    -0.10900
H445        H  0.52100336  0.81960274  0.83197241     0.08800
H446        H  0.49394493  0.81859779  0.87944357     0.06300
H447        H  0.46197637  0.81899052  0.83430931     0.06200
C448        C  0.48986454  0.83057952  0.70594616     0.03200
C449        C  0.50682613  0.83339389  0.69781670    -0.12900
C450        C  0.50739310  0.83934295  0.68101874     0.00700
C451        C  0.49097084  0.84198535  0.67228238    -0.11500
C452        C  0.47400616  0.83914375  0.68002623     0.03200
C453        C  0.47351982  0.83311325  0.69677826    -0.10900
H454        H  0.51952005  0.83201902  0.70471785     0.08800
H455        H  0.49142469  0.84625709  0.65924601     0.06300
H456        H  0.46038806  0.83100206  0.70279981     0.06200
C457        C  0.51465685  0.79898763  0.75743283    -0.17700
C458        C  0.51496846  0.79750204  0.77488292    -0.19900
C459        C  0.50243878  0.80862586  0.78477208     0.20700
C460        C  0.48926489  0.82108630  0.77695960    -0.02800
C461        C  0.48893715  0.82256631  0.75935242    -0.05900
C462        C  0.50180992  0.81162637  0.74954081     0.21000
C463        C  0.47594172  0.83530877  0.75161114     0.19200
C464        C  0.46322869  0.84618321  0.76145058    -0.17400
C465        C  0.46355417  0.84472044  0.77885887    -0.19600
C466        C  0.47658937  0.83234284  0.78673709     0.20700
C467        C  0.47729961  0.83128061  0.80422270    -0.32600
C468        C  0.49047689  0.81904504  0.81219710     0.01400
C469        C  0.50294790  0.80766405  0.80231415    -0.24000
C470        C  0.50180900  0.81382504  0.73207162    -0.28500
C471        C  0.48912167  0.82688450  0.72428157     0.07000
C472        C  0.47611807  0.83736264  0.73420522    -0.27200
H473        H  0.52460873  0.79041787  0.75011689     0.11700
H474        H  0.52514090  0.78779486  0.78065706     0.12900
H475        H  0.45313957  0.85600969  0.75568626     0.12000
H476        H  0.45369587  0.85342547  0.78617739     0.11200
H477        H  0.46782576  0.84040372  0.81163433     0.16600
H478        H  0.51301478  0.79798664  0.80827843     0.12500
H479        H  0.51176230  0.80551269  0.72455496     0.15400
H480        H  0.46649067  0.84775620  0.72844579     0.15100
C481        C  0.23527137  0.22183799  0.01256001    -0.17700
C482        C  0.22508089  0.23788474  0.00583735    -0.19900
C483        C  0.22986497  0.25834046  0.00929008     0.20700
C484        C  0.24503036  0.26267725  0.01966969    -0.02800
C485        C  0.25532361  0.24645665  0.02647558    -0.05900
C486        C  0.25042114  0.22596316  0.02285836     0.21000
C487        C  0.27049428  0.25074175  0.03686948     0.19200
C488        C  0.27521494  0.27122257  0.04037779    -0.17400
C489        C  0.26501892  0.28730036  0.03362492    -0.19600
C490        C  0.24990921  0.28319041  0.02324614     0.20700
C491        C  0.23959199  0.29921440  0.01641090    -0.32600
C492        C  0.22437122  0.29504796  0.00605605     0.01400
C493        C  0.21968522  0.27448821  0.00257026    -0.24000
C494        C  0.26071576  0.20991701  0.02957857    -0.28500
C495        C  0.27593528  0.21395031  0.03991916     0.07000
C496        C  0.28068594  0.23449012  0.04352457    -0.27200
H497        H  0.23130790  0.20617653  0.00968005     0.11700
H498        H  0.21345223  0.23428569  0.99791197     0.12900
H499        H  0.28681600  0.27481557  0.04833868     0.12000
H500        H  0.26895954  0.30296269  0.03652306     0.11200
H501        H  0.24351614  0.31489624  0.01917209     0.16600
H502        H  0.20798769  0.27089956  0.99476352     0.12500
H503        H  0.25668800  0.19427528  0.02679687     0.15400
H504        H  0.29239618  0.23792377  0.05137476     0.15100
C505        C  0.41025084  0.80521409  0.87063383    -0.17700
C506        C  0.39470297  0.80855261  0.88060806    -0.19900
C507        C  0.39538206  0.82209521  0.89441055     0.20700
C508        C  0.41192670  0.83238087  0.89813098    -0.02800
C509        C  0.42760501  0.82896408  0.88811736    -0.05900
C510        C  0.42679363  0.81532589  0.87427951     0.21000
C511        C  0.44407888  0.83927444  0.89195828     0.19200
C512        C  0.44481091  0.85285619  0.90568292    -0.17400
C513        C  0.42932136  0.85625286  0.91555748    -0.19600
C514        C  0.41283951  0.84613494  0.91186540     0.20700
C515        C  0.39727262  0.84964118  0.92168499    -0.32600
C516        C  0.38067031  0.83958217  0.91811980     0.01400
C517        C  0.37985422  0.82565018  0.90451323    -0.24000
C518        C  0.44253700  0.81205334  0.86440806    -0.28500
C519        C  0.45906992  0.82222714  0.86827665     0.07000
C520        C  0.45957123  0.83592153  0.88201882    -0.27200
H521        H  0.40933527  0.79469296  0.86006821     0.11700
H522        H  0.38213205  0.80054179  0.87751252     0.12900
H523        H  0.45738009  0.86087645  0.90878119     0.12000
H524        H  0.43022568  0.86684563  0.92607951     0.11200
H525        H  0.39819731  0.86013414  0.93226514     0.16600
H526        H  0.36710170  0.81789270  0.90161170     0.12500
H527        H  0.44199269  0.80143178  0.85388298     0.15400
H528        H  0.47203732  0.84427841  0.88488023     0.15100
C529        C  0.34513652  0.98756145  0.01757535    -0.17700
C530        C  0.34572091  0.00694260  0.02522680    -0.19900
C531        C  0.32957934  0.01824132  0.02773882     0.20700
C532        C  0.31262871  0.00985583  0.02266145    -0.02800
C533        C  0.31201175  0.99012358  0.01512825    -0.05900
C534        C  0.32838327  0.97906063  0.01242708     0.21000
C535        C  0.29507540  0.98154779  0.01019603     0.19200
C536        C  0.27891637  0.99284147  0.01283503    -0.17400
C537        C  0.27955513  0.01253088  0.02008855    -0.19600
C538        C  0.29634980  0.02123690  0.02498340     0.20700
C539        C  0.29720899  0.04110613  0.03208542    -0.32600
C540        C  0.31410281  0.04948869  0.03723214     0.01400
C541        C  0.33016445  0.03784305  0.03511791    -0.24000
C542        C  0.32777692  0.95973919  0.00454692    -0.28500
C543        C  0.31100636  0.95104713  0.99951997     0.07000
C544        C  0.29465622  0.96195234  0.00257972    -0.27200
H545        H  0.35781920  0.97922798  0.01564686     0.11700
H546        H  0.35884209  0.01317476  0.02906126     0.12900
H547        H  0.26578232  0.98652041  0.00914487     0.12000
H548        H  0.26690193  0.02097238  0.02183566     0.11200
H549        H  0.28475015  0.04992222  0.03380538     0.16600
H550        H  0.34325475  0.04423397  0.03887375     0.12500
H551        H  0.34041241  0.95135480  0.00249742     0.15400
H552        H  0.28167205  0.95541209  0.99869058     0.15100
C553        C  0.13751629  0.50970055  0.04442370    -0.17700
C554        C  0.13840881  0.48922379  0.03906989    -0.19900
C555        C  0.15490183  0.48094390  0.03301987     0.20700
C556        C  0.17073772  0.49330900  0.03257567    -0.02800
C557        C  0.16975652  0.51409064  0.03771117    -0.05900
C558        C  0.15305890  0.52229430  0.04366915     0.21000
C559        C  0.18539650  0.52671106  0.03665926     0.19200
C560        C  0.20197939  0.51828943  0.03091958    -0.17400
C561        C  0.20302066  0.49760961  0.02606217    -0.19600
C562        C  0.18744925  0.48503203  0.02668713     0.20700
C563        C  0.18813703  0.46452132  0.02107706    -0.32600
C564        C  0.17218532  0.45246546  0.02078045     0.01400
C565        C  0.15570904  0.46068012  0.02700581    -0.24000
C566        C  0.15214334  0.54298406  0.04862423    -0.28500
C567        C  0.16757032  0.55575047  0.04733647     0.07000
C568        C  0.18414117  0.54752771  0.04128566    -0.27200
H569        H  0.12459928  0.51576015  0.04897015     0.11700
H570        H  0.12614895  0.47990008  0.03953621     0.12900
H571        H  0.21414056  0.52772996  0.03011130     0.12000
H572        H  0.21595098  0.49153220  0.02156645     0.11200
H573        H  0.20083555  0.45826130  0.01618533     0.16600
H574        H  0.14343244  0.45133874  0.02695578     0.12500
H575        H  0.13929622  0.54927222  0.05314808     0.15400
H576        H  0.19612160  0.55725774  0.04042779     0.15100
C577        C  0.21725813  0.79102782  0.01922875    -0.17700
C578        C  0.20704914  0.77595950  0.02731191    -0.19900
C579        C  0.21112781  0.75509701  0.02483692     0.20700
C580        C  0.22560753  0.74938688  0.01407684    -0.02800
C581        C  0.23590746  0.76459461  0.00591282    -0.05900
C582        C  0.23173412  0.78550394  0.00852807     0.21000
C583        C  0.25041504  0.75885721  0.99519202     0.19200
C584        C  0.25447398  0.73800823  0.99269055    -0.17400
C585        C  0.24428244  0.72295789  0.00077100    -0.19600
C586        C  0.22984027  0.72848629  0.01148869     0.20700
C587        C  0.21960058  0.71345015  0.01965004    -0.32600
C588        C  0.20508166  0.71892085  0.03040416     0.01400
C589        C  0.20097823  0.73986782  0.03291200    -0.24000
C590        C  0.24217140  0.80052130  0.00050101    -0.28500
C591        C  0.25685249  0.79497874  0.98991413     0.07000
C592        C  0.26073258  0.77402899  0.98726563    -0.27200
H593        H  0.21385765  0.80701738  0.02138609     0.11700
H594        H  0.19596794  0.78063357  0.03552464     0.12900
H595        H  0.26557846  0.73333063  0.98450588     0.12000
H596        H  0.24771509  0.70697079  0.99864271     0.11200
H597        H  0.22309671  0.69748814  0.01762358     0.16600
H598        H  0.18982003  0.74443841  0.04104543     0.12500
H599        H  0.23881576  0.81650866  0.00260547     0.15400
H600        H  0.27195943  0.76939180  0.97924133     0.15100
C601        C  0.02473262  0.34953271  0.76848787    -0.17700
C602        C  0.02436968  0.35017658  0.78595429    -0.19900
C603        C  0.01177240  0.33825080  0.79478871     0.20700
C604        C  0.99940996  0.32551411  0.78593287    -0.02800
C605        C  0.99975258  0.32488115  0.76826899    -0.05900
C606        C  0.01247722  0.33696544  0.75953948     0.21000
C607        C  0.98727361  0.31232551  0.75936098     0.19200
C608        C  0.97467008  0.30039774  0.76821920    -0.17400
C609        C  0.97436266  0.30099082  0.78572588    -0.19600
C610        C  0.98663190  0.31354290  0.79470627     0.20700
C611        C  0.98630688  0.31441407  0.81227446    -0.32600
C612        C  0.99857395  0.32714404  0.82122253     0.01400
C613        C  0.01125436  0.33899194  0.81230777    -0.24000
C614        C  0.01259209  0.33651335  0.74201690    -0.28500
C615        C  0.00011860  0.32419326  0.73297157     0.07000
C616        C  0.98752163  0.31207344  0.74178093    -0.27200
H617        H  0.03456662  0.35893464  0.76197134     0.11700
H618        H  0.03394486  0.36005717  0.79256518     0.12900
H619        H  0.96499186  0.29065909  0.76160408     0.12000
H620        H  0.96445836  0.29168233  0.79224751     0.11200
H621        H  0.97657269  0.30508746  0.81899436     0.16600
H622        H  0.02052210  0.34915957  0.81900434     0.12500
H623        H  0.02209315  0.34624283  0.73540440     0.15400
H624        H  0.97791890  0.30245510  0.73494696     0.15100
C625        C  0.09186850  0.31722820  0.89469709    -0.17700
C626        C  0.07702063  0.31472807  0.88372278    -0.19900
C627        C  0.06142706  0.32724282  0.88525484     0.20700
C628        C  0.06097490  0.34264337  0.89783054    -0.02800
C629        C  0.07594329  0.34517037  0.90887608    -0.05900
C630        C  0.09142218  0.33230256  0.90741583     0.21000
C631        C  0.07528235  0.36042921  0.92152079     0.19200
C632        C  0.05986459  0.37317239  0.92293188    -0.17400
C633        C  0.04507725  0.37067518  0.91203045    -0.19600
C634        C  0.04544592  0.35536737  0.89955481     0.20700
C635        C  0.03037752  0.35236273  0.88900482    -0.32600
C636        C  0.03037748  0.33665722  0.87677947     0.01400
C637        C  0.04613419  0.32439998  0.87471949    -0.24000
C638        C  0.10607693  0.33469147  0.91875164    -0.28500
C639        C  0.10544890  0.34986873  0.93147418     0.07000
C640        C  0.08994821  0.36264497  0.93266389    -0.27200
H641        H  0.10365085  0.30724675  0.89331563     0.11700
H642        H  0.07766152  0.30285015  0.87413799     0.12900
H643        H  0.05918359  0.38499854  0.93255979     0.12000
H644        H  0.03325375  0.38058802  0.91347612     0.11200
H645        H  0.01847397  0.36217922  0.89042485     0.16600
H646        H  0.04624572  0.31226863  0.86532211     0.12500
H647        H  0.11795887  0.32482874  0.91758834     0.15400
H648        H  0.08904927  0.37421727  0.94245384     0.15100
C649        C  0.93198044  0.30425138  0.90208689    -0.17700
C650        C  0.91676474  0.30735227  0.91243998    -0.19900
C651        C  0.90880508  0.32686557  0.91409454     0.20700
C652        C  0.91608743  0.34337766  0.90503633    -0.02800
C653        C  0.93133778  0.34021126  0.89445293    -0.05900
C654        C  0.93942826  0.32058000  0.89311374     0.21000
C655        C  0.93872457  0.35677414  0.88550326     0.19200
C656        C  0.93073299  0.37627364  0.88712279    -0.17400
C657        C  0.91569811  0.37942954  0.89769300    -0.19600
C658        C  0.90835787  0.36312370  0.90678675     0.20700
C659        C  0.89364537  0.36628765  0.91781645    -0.32600
C660        C  0.88646610  0.34995381  0.92707984     0.01400
C661        C  0.89395276  0.33022250  0.92492016    -0.24000
C662        C  0.95505713  0.31775355  0.88312684    -0.28500
C663        C  0.96252144  0.33424269  0.87436132     0.07000
C664        C  0.95422620  0.35363215  0.87542011    -0.27200
H665        H  0.93801226  0.28909587  0.90119393     0.11700
H666        H  0.91135417  0.29451793  0.91932138     0.12900
H667        H  0.93624645  0.38914765  0.88035784     0.12000
H668        H  0.90990847  0.39467945  0.89886965     0.11200
H669        H  0.88785096  0.38150758  0.91923352     0.16600
H670        H  0.88865444  0.31757255  0.93208626     0.12500
H671        H  0.96167296  0.30288011  0.88241686     0.15400
H672        H  0.96023932  0.36637450  0.86881809     0.15100
C673        C  0.74266105  0.28459313  0.04465472    -0.17700
C674        C  0.73079584  0.26915515  0.04999420    -0.19900
C675        C  0.72891130  0.25087036  0.04068085     0.20700
C676        C  0.73918671  0.24809288  0.02589214    -0.02800
C677        C  0.75117327  0.26367745  0.02050323    -0.05900
C678        C  0.75285847  0.28203976  0.02989681     0.21000
C679        C  0.76139541  0.26090355  0.00568526     0.19200
C680        C  0.75959814  0.24258042  0.99642203    -0.17400
C681        C  0.74773394  0.22716376  0.00175091    -0.19600
C682        C  0.73746152  0.22977559  0.01645011     0.20700
C683        C  0.72550753  0.21438120  0.02183707    -0.32600
C684        C  0.71518367  0.21693716  0.03659045     0.01400
C685        C  0.71697342  0.23532499  0.04591137    -0.24000
C686        C  0.76462163  0.29756016  0.02433870    -0.28500
C687        C  0.77478335  0.29503047  0.00947610     0.07000
C688        C  0.77312604  0.27653079  0.00030357    -0.27200
H689        H  0.74380765  0.29857911  0.05204683     0.11700
H690        H  0.72305179  0.27154524  0.06140255     0.12900
H691        H  0.76734053  0.24018693  0.98501273     0.12000
H692        H  0.74658110  0.21318262  0.99435127     0.11200
H693        H  0.72420025  0.20046952  0.01439762     0.16600
H694        H  0.70926709  0.23751952  0.05735231     0.12500
H695        H  0.76585985  0.31156380  0.03167269     0.15400
H696        H  0.78071833  0.27433060  0.98880104     0.15100
C697        C  0.55414566  0.79393516  0.89805523    -0.17700
C698        C  0.56949123  0.79738347  0.90821835    -0.19900
C699        C  0.57920048  0.81591351  0.90739059     0.20700
C700        C  0.57349423  0.83101585  0.89603375    -0.02800
C701        C  0.55821017  0.82738923  0.88556069    -0.05900
C702        C  0.54835480  0.80885402  0.88673289     0.21000
C703        C  0.55259978  0.84247105  0.87414467     0.19200
C704        C  0.56225556  0.86102079  0.87334302    -0.17400
C705        C  0.57721878  0.86472496  0.88387795    -0.19600
C706        C  0.58289502  0.84986632  0.89529203     0.20700
C707        C  0.59768325  0.85363642  0.90608933    -0.32600
C708        C  0.60346518  0.83870802  0.91746339     0.01400
C709        C  0.59431757  0.81974997  0.91787973    -0.24000
C710        C  0.53267856  0.80577969  0.87682034    -0.28500
C711        C  0.52699873  0.82080572  0.86551175     0.07000
C712        C  0.53717302  0.83894905  0.86403364    -0.27200
H713        H  0.54675474  0.77961433  0.89910202     0.11700
H714        H  0.57363916  0.78563592  0.91687675     0.12900
H715        H  0.55809848  0.87277834  0.86469637     0.12000
H716        H  0.58432007  0.87926289  0.88313810     0.11200
H717        H  0.60478042  0.86820082  0.90556728     0.16600
H718        H  0.59860207  0.80825365  0.92671322     0.12500
H719        H  0.52470520  0.79186433  0.87803938     0.15400
H720        H  0.53258181  0.85067070  0.85551724     0.15100
C721        C  0.63415433  0.01402041  0.01434585    -0.17700
C722        C  0.63483842  0.99383483  0.00823070    -0.19900
C723        C  0.65174335  0.98427357  0.00510052     0.20700
C724        C  0.66813002  0.99517443  0.00809745    -0.02800
C725        C  0.66743213  0.01568266  0.01398687    -0.05900
C726        C  0.65035986  0.02506343  0.01726514     0.21000
C727        C  0.68380749  0.02675144  0.01665563     0.19200
C728        C  0.70070418  0.01714193  0.01359633    -0.17400
C729        C  0.70140080  0.99671637  0.00801499    -0.19600
C730        C  0.68520881  0.98559488  0.00521708     0.20700
C731        C  0.68578103  0.96513463  0.99948013    -0.32600
C732        C  0.66949557  0.95433630  0.99614838     0.01400
C733        C  0.65254093  0.96403026  0.99898727    -0.24000
C734        C  0.64980062  0.04526023  0.02351042    -0.28500
C735        C  0.66605797  0.05638497  0.02618632     0.07000
C736        C  0.68300052  0.04713583  0.02251293    -0.27200
H737        H  0.62093725  0.02101140  0.01676660     0.11700
H738        H  0.62213324  0.98566380  0.00601478     0.12900
H739        H  0.71340450  0.02539155  0.01562125     0.12000
H740        H  0.71462422  0.98963452  0.00582223     0.11200
H741        H  0.69887753  0.95778876  0.99718715     0.16600
H742        H  0.63993477  0.95572017  0.99661207     0.12500
H743        H  0.63669320  0.05238983  0.02619186     0.15400
H744        H  0.69556877  0.05558871  0.02470905     0.15100
C745        C  0.78914203  0.49632199  0.02884369    -0.17700
C746        C  0.78884638  0.51689327  0.03411339    -0.19900
C747        C  0.80524602  0.52782649  0.03633412     0.20700
C748        C  0.82211319  0.51790724  0.03316239    -0.02800
C749        C  0.82240143  0.49726113  0.02762026    -0.05900
C750        C  0.80583464  0.48636848  0.02554269     0.21000
C751        C  0.83927427  0.48756540  0.02409248     0.19200
C752        C  0.85568458  0.49841891  0.02637096    -0.17400
C753        C  0.85541176  0.51874884  0.03210825    -0.19600
C754        C  0.83871692  0.52860933  0.03551184     0.20700
C755        C  0.83837110  0.54897453  0.04126309    -0.32600
C756        C  0.82165810  0.55900097  0.04446256     0.01400
C757        C  0.80511611  0.54842738  0.04177521    -0.24000
C758        C  0.80627311  0.46582343  0.02000644    -0.28500
C759        C  0.82303517  0.45629338  0.01608301     0.07000
C760        C  0.83945534  0.46724244  0.01821173    -0.27200
H761        H  0.77629418  0.48822373  0.02726212     0.11700
H762        H  0.77577878  0.52423238  0.03651860     0.12900
H763        H  0.86874259  0.49117084  0.02373317     0.12000
H764        H  0.86826937  0.52679047  0.03383157     0.11200
H765        H  0.85117025  0.55711374  0.04306939     0.16600
H766        H  0.79220548  0.55606342  0.04431123     0.12500
H767        H  0.79357629  0.45747020  0.01823323     0.15400
H768        H  0.85241726  0.45988429  0.01534648     0.15100
C769        C  0.76208471  0.79220789  0.02673440    -0.17700
C770        C  0.77301267  0.77741097  0.03440913    -0.19900
C771        C  0.76982231  0.75643828  0.03148305     0.20700
C772        C  0.75549919  0.75035473  0.02067110    -0.02800
C773        C  0.74445713  0.76530054  0.01292362    -0.05900
C774        C  0.74774525  0.78631584  0.01599745     0.21000
C775        C  0.73010995  0.75919550  0.00214958     0.19200
C776        C  0.72697597  0.73823137  0.99915646    -0.17400
C777        C  0.73790690  0.72344600  0.00680812    -0.19600
C778        C  0.75216991  0.72934446  0.01761115     0.20700
C779        C  0.76313708  0.71457438  0.02536906    -0.32600
C780        C  0.77749274  0.72041414  0.03620958     0.01400
C781        C  0.78068920  0.74147539  0.03917661    -0.24000
C782        C  0.73661501  0.80107036  0.00835513    -0.28500
C783        C  0.72211950  0.79517964  0.99765786     0.07000
C784        C  0.71908350  0.77411135  0.99461116    -0.27200
H785        H  0.76482631  0.80828256  0.02923734     0.11700
H786        H  0.78396007  0.78238410  0.04265928     0.12900
H787        H  0.71602801  0.73325325  0.99090835     0.12000
H788        H  0.73517153  0.70737162  0.00429569     0.11200
H789        H  0.76047702  0.69852704  0.02278815     0.16600
H790        H  0.79157329  0.74634043  0.04751137     0.12500
H791        H  0.73931792  0.81713237  0.01083060     0.15400
H792        H  0.70805337  0.76916944  0.98647562     0.15100
C793        C  0.44132395  0.13187025  0.14868660    -0.17700
C794        C  0.42620940  0.12822830  0.13837672    -0.19900
C795        C  0.41242003  0.14307002  0.13687248     0.20700
C796        C  0.41366615  0.16161400  0.14608261    -0.02800
C797        C  0.42890682  0.16526563  0.15657439    -0.05900
C798        C  0.44286795  0.15038779  0.15768741     0.21000
C799        C  0.43040001  0.18396194  0.16560664     0.19200
C800        C  0.41645464  0.19867232  0.16422674    -0.17400
C801        C  0.40134970  0.19505759  0.15378318    -0.19600
C802        C  0.39990524  0.17665449  0.14453892     0.20700
C803        C  0.38514155  0.17316224  0.13356787    -0.32600
C804        C  0.38398654  0.15482526  0.12407409     0.01400
C805        C  0.39762401  0.13978981  0.12603751    -0.24000
C806        C  0.45840803  0.15450520  0.16737617    -0.28500
C807        C  0.46029373  0.17330510  0.17597414     0.07000
C808        C  0.44606727  0.18780737  0.17541275    -0.27200
H809        H  0.45193677  0.12030286  0.14944824     0.11700
H810        H  0.42542719  0.11389705  0.13139858     0.12900
H811        H  0.41735065  0.21310343  0.17105022     0.12000
H812        H  0.39089511  0.20676859  0.15278940     0.11200
H813        H  0.37468800  0.18482166  0.13235738     0.16600
H814        H  0.39710114  0.12564462  0.11883372     0.12500
H815        H  0.46935819  0.14328695  0.16790018     0.15400
H816        H  0.44759119  0.20236424  0.18197221     0.15100
C817        C  0.58741873  0.19597309  0.15046294    -0.17700
C818        C  0.57274676  0.19906641  0.16148726    -0.19900
C819        C  0.55805098  0.18520818  0.16175028     0.20700
C820        C  0.55834397  0.16783761  0.15101593    -0.02800
C821        C  0.57314717  0.16470626  0.13993129    -0.05900
C822        C  0.58766405  0.17895939  0.13951211     0.21000
C823        C  0.57323501  0.14750062  0.12906230     0.19200
C824        C  0.55874527  0.13340339  0.12952426    -0.22200
C825        C  0.54408569  0.13651221  0.14047262    -0.19600
C826        C  0.54368510  0.15376794  0.15112227     0.20700
C827        C  0.52869560  0.15738188  0.16162844    -0.32600
C828        C  0.52798974  0.17496183  0.17198958     0.01400
C829        C  0.54289162  0.18861606  0.17225838    -0.24000
C830        C  0.60200864  0.17609367  0.12799720    -0.28500
C831        C  0.60202696  0.15913174  0.11690899     0.07000
C832        C  0.58763347  0.14482272  0.11770314    -0.27200
H833        H  0.59848384  0.20702895  0.15037056     0.11700
H834        H  0.57278658  0.21244840  0.16966361     0.12900
H835        H  0.55865033  0.12008135  0.12127969     0.12000
H836        H  0.53294281  0.12554682  0.14046158     0.11200
H837        H  0.51741750  0.14657124  0.16163652     0.16600
H838        H  0.54240493  0.20218797  0.18022162     0.12500
H839        H  0.61308568  0.18711274  0.12765879     0.15400
H840        H  0.58728571  0.13177462  0.10920733     0.15100
C841        C  0.47140139  0.21273817  0.28026981    -0.17700
C842        C  0.47104700  0.21196510  0.26278355    -0.19900
C843        C  0.48481505  0.20156225  0.25382801     0.20700
C844        C  0.49920690  0.19207022  0.26258999    -0.02800
C845        C  0.49958945  0.19288992  0.28023404    -0.05900
C846        C  0.48555377  0.20316680  0.28911503     0.21000
C847        C  0.51388156  0.18319489  0.28897053     0.19200
C848        C  0.52777081  0.17299380  0.28002956    -0.17400
C849        C  0.52735437  0.17211993  0.26256735    -0.19600
C850        C  0.51306156  0.18146634  0.25375149     0.20700
C851        C  0.51219132  0.17997348  0.23628195    -0.32600
C852        C  0.49776727  0.18915732  0.22736451     0.01400
C853        C  0.48427900  0.20021434  0.23629960    -0.24000
C854        C  0.48586749  0.20362212  0.30666434    -0.28500
C855        C  0.49999481  0.19384865  0.31550849     0.07000
C856        C  0.51394447  0.18365488  0.30648866    -0.27200
H857        H  0.46053316  0.22073380  0.28688357     0.11700
H858        H  0.45989676  0.21935282  0.25626400     0.12900
H859        H  0.53887675  0.16552361  0.28655098     0.12000
H860        H  0.53813249  0.16396236  0.25595804     0.11200
H861        H  0.52247297  0.17100130  0.22971760     0.16600
H862        H  0.47325888  0.20765457  0.22963925     0.12500
H863        H  0.47518840  0.21175474  0.31343124     0.15400
H864        H  0.52471082  0.17569232  0.31309139     0.15100
C865        C  0.08647355  0.65686107  0.16735060    -0.17700
C866        C  0.07184777  0.66136340  0.17810807    -0.19900
C867        C  0.06026639  0.67807365  0.17500963     0.20700
C868        C  0.06395136  0.69091232  0.16136335    -0.02800
C869        C  0.07882783  0.68651583  0.15063975    -0.05900
C870        C  0.08985029  0.66909641  0.15339375     0.21000
C871        C  0.08220607  0.69910121  0.13678417     0.19200
C872        C  0.07101744  0.71620156  0.13399122    -0.17400
C873        C  0.05613296  0.72038217  0.14446505    -0.19600
C874        C  0.05230161  0.70762708  0.15798151     0.20700
C875        C  0.03656364  0.71073981  0.16769073    -0.32600
C876        C  0.03232546  0.69742165  0.18077182     0.01400
C877        C  0.04456815  0.68157982  0.18477722    -0.24000
C878        C  0.10364622  0.66389533  0.14185049    -0.28500
C879        C  0.10673186  0.67612028  0.12779107     0.07000
C880        C  0.09628446  0.69397777  0.12560966    -0.27200
H881        H  0.09490069  0.64354606  0.16974444     0.11700
H882        H  0.06926797  0.65140952  0.18856996     0.12900
H883        H  0.07348766  0.72604354  0.12343501     0.12000
H884        H  0.04737551  0.73333710  0.14177260     0.11200
H885        H  0.02719871  0.72306635  0.16470243     0.16600
H886        H  0.04125440  0.67121448  0.19480380     0.12500
H887        H  0.11183197  0.65024452  0.14368656     0.15400
H888        H  0.09850946  0.70339846  0.11475224     0.15100
C889        C  0.94400653  0.71879488  0.13748803    -0.17700
C890        C  0.92984374  0.71505267  0.12605915    -0.19900
C891        C  0.91875505  0.69759966  0.12749037     0.20700
C892        C  0.92187357  0.68386635  0.14067472    -0.02800
C893        C  0.93596087  0.68782526  0.15237627    -0.05900
C894        C  0.94719812  0.70526898  0.15065938     0.21000
C895        C  0.93895681  0.67417728  0.16564274     0.19200
C896        C  0.92792990  0.65667579  0.16703752    -0.17400
C897        C  0.91414372  0.65260761  0.15531277    -0.19600
C898        C  0.91104575  0.66606874  0.14207809     0.20700
C899        C  0.89739436  0.66197011  0.13016664    -0.32600
C900        C  0.89416242  0.67560634  0.11702580     0.01400
C901        C  0.90475185  0.69351376  0.11587625    -0.24000
C902        C  0.96160076  0.70868176  0.16197992    -0.28500
C903        C  0.96468538  0.69509224  0.17516538     0.07000
C904        C  0.95315627  0.67805130  0.17707321    -0.27200
H905        H  0.95249754  0.73226114  0.13600208     0.11700
H906        H  0.92767132  0.72572476  0.11599781     0.12900
H907        H  0.93008537  0.64601856  0.17711252     0.12000
H908        H  0.90592035  0.63889742  0.15657919     0.11200
H909        H  0.88913966  0.64824909  0.13123452     0.16600
H910        H  0.90240759  0.70398277  0.10569713     0.12500
H911        H  0.97054003  0.72179670  0.16049265     0.15400
H912        H  0.95571681  0.66740065  0.18708997     0.15100
C913        C  0.96399018  0.67180885  0.28273340    -0.17700
C914        C  0.96449357  0.67357488  0.26533073    -0.19900
C915        C  0.97818711  0.68523783  0.25765648     0.20700
C916        C  0.99127002  0.69556513  0.26764689    -0.02800
C917        C  0.99078939  0.69374249  0.28521497    -0.05900
C918        C  0.97718741  0.68165032  0.29277111     0.21000
C919        C  0.00411914  0.70371339  0.29517313     0.19200
C920        C  0.01758597  0.71571144  0.28752275    -0.17400
C921        C  0.01802861  0.71756520  0.27013426    -0.19600
C922        C  0.00503920  0.70741102  0.26008551     0.20700
C923        C  0.00577627  0.70864752  0.24261188    -0.32600
C924        C  0.99316038  0.69786088  0.23246711     0.01400
C925        C  0.97925759  0.68637090  0.24017510    -0.24000
C926        C  0.97724217  0.67925871  0.31018108    -0.28500
C927        C  0.99069038  0.68885782  0.32023151     0.07000
C928        C  0.00392602  0.70129611  0.31257222    -0.27200
H929        H  0.95340481  0.66251989  0.28833177     0.11700
H930        H  0.95429052  0.66560885  0.25785756     0.12900
H931        H  0.02789844  0.72351369  0.29498331     0.12000
H932        H  0.02867753  0.72675757  0.26452866     0.11200
H933        H  0.01628239  0.71796054  0.23691710     0.16600
H934        H  0.96958007  0.67774834  0.23260167     0.12500
H935        H  0.96712799  0.66937684  0.31582025     0.15400
H936        H  0.01414793  0.70907780  0.32015565     0.15100
C937        C  0.07589063  0.30597133  0.66578679    -0.17700
C938        C  0.09076059  0.30862946  0.65495275    -0.19900
C939        C  0.09236247  0.32653005  0.64551377     0.20700
C940        C  0.07894670  0.34201088  0.64721555    -0.02800
C941        C  0.06390651  0.33929150  0.65805094    -0.05900
C942        C  0.06230755  0.32113522  0.66734246     0.21000
C943        C  0.05029817  0.35460870  0.65933770     0.19200
C944        C  0.05200766  0.37264559  0.65015060    -0.17400
C945        C  0.06694163  0.37538739  0.63953021    -0.19600
C946        C  0.08036717  0.36010059  0.63788016     0.20700
C947        C  0.09501523  0.36253793  0.62683877    -0.32600
C948        C  0.10837428  0.34713242  0.62480758     0.01400
C949        C  0.10698657  0.32915943  0.63428154    -0.24000
C950        C  0.04695806  0.31833004  0.67770295    -0.28500
C951        C  0.03310256  0.33329617  0.67854248     0.07000
C952        C  0.03500822  0.35147032  0.66951204    -0.27200
H953        H  0.07490670  0.29194011  0.67280900     0.11700
H954        H  0.10094319  0.29659693  0.65386168     0.12900
H955        H  0.04169053  0.38455711  0.65105348     0.12000
H956        H  0.06788192  0.38938514  0.63245347     0.11200
H957        H  0.09565487  0.37635123  0.61954144     0.16600
H958        H  0.11723956  0.31724086  0.63294524     0.12500
H959        H  0.04544119  0.30427213  0.68462758     0.15400
H960        H  0.02438487  0.36307685  0.67027474     0.15100
C961        C  0.45232561  0.15164366  0.40390399    -0.17700
C962        C  0.43706146  0.14829348  0.41401792    -0.19900
C963        C  0.42154884  0.16088116  0.41275436     0.20700
C964        C  0.42140048  0.17705108  0.40124742    -0.02800
C965        C  0.43677327  0.18036103  0.39095392    -0.05900
C966        C  0.45229267  0.16759921  0.39234037     0.21000
C967        C  0.43662070  0.19642698  0.37930785     0.19200
C968        C  0.42116310  0.20913531  0.37821143    -0.17400
C969        C  0.40594738  0.20590863  0.38848501    -0.19600
C970        C  0.40589663  0.18987192  0.39999998     0.20700
C971        C  0.39057641  0.18631005  0.41017302    -0.32600
C972        C  0.39051988  0.16998229  0.42147608     0.01400
C973        C  0.40616261  0.15747911  0.42275499    -0.24000
C974        C  0.46756852  0.17110111  0.38223027    -0.28500
C975        C  0.46756508  0.18711821  0.37066894     0.07000
C976        C  0.45198876  0.19958957  0.36910349    -0.27200
H977        H  0.46415674  0.14174088  0.40511584     0.11700
H978        H  0.43737991  0.13582977  0.42282057     0.12900
H979        H  0.42083867  0.22158728  0.36940061     0.12000
H980        H  0.39417501  0.21591221  0.38736818     0.11200
H981        H  0.37860050  0.19599437  0.40902800     0.16600
H982        H  0.40648675  0.14508626  0.43160521     0.12500
H983        H  0.47954972  0.16138169  0.38335089     0.15400
H984        H  0.45205585  0.21203685  0.36027032     0.15100
C985        C  0.23939675  0.22239364  0.53267610    -0.17700
C986        C  0.22895457  0.23762767  0.54065189    -0.19900
C987        C  0.22610487  0.25660139  0.53301593     0.20700
C988        C  0.23382614  0.26023959  0.51716780    -0.02800
C989        C  0.24441708  0.24490156  0.50914720    -0.05900
C990        C  0.24720335  0.22589560  0.51694718     0.21000
C991        C  0.25232399  0.24865574  0.49339111     0.19200
C992        C  0.24935594  0.26755674  0.48569357    -0.17400
C993        C  0.23880280  0.28271841  0.49360930    -0.19600
C994        C  0.23108997  0.27925407  0.50937713     0.20700
C995        C  0.22082189  0.29454425  0.51753153    -0.32600
C996        C  0.21323669  0.29116166  0.53341998     0.01400
C997        C  0.21582355  0.27205351  0.54101242    -0.24000
C998        C  0.25787146  0.21080210  0.50894908    -0.28500
C999        C  0.26600927  0.21454496  0.49334526     0.07000
C1000       C  0.26314155  0.23350623  0.48564727    -0.27200
H1001       H  0.24142914  0.20789064  0.53884567     0.11700
H1002       H  0.22314035  0.23458259  0.55281952     0.12900
H1003       H  0.25527409  0.27065553  0.47357742     0.12000
H1004       H  0.23678666  0.29722905  0.48744574     0.11200
H1005       H  0.21872533  0.30906932  0.51142846     0.16600
H1006       H  0.21015960  0.26929817  0.55328253     0.12500
H1007       H  0.26015253  0.19631636  0.51507017     0.15400
H1008       H  0.26921013  0.23642993  0.47355984     0.15100
C1009       C  0.08395104  0.69774218  0.39684241    -0.17700
C1010       C  0.06946350  0.70040825  0.38557238    -0.19900
C1011       C  0.05546847  0.68571716  0.38421391     0.20700
C1012       C  0.05620130  0.66809651  0.39426045    -0.02800
C1013       C  0.07075334  0.66545971  0.40565115    -0.05900
C1014       C  0.08469776  0.68035345  0.40698474     0.21000
C1015       C  0.07122839  0.64797906  0.41581186     0.19200
C1016       C  0.05728382  0.63327088  0.41450800    -0.17400
C1017       C  0.04290518  0.63586266  0.40324618    -0.19600
C1018       C  0.04221791  0.65323297  0.39315258     0.20700
C1019       C  0.02746383  0.65625989  0.38235517    -0.32600
C1020       C  0.02620363  0.67410674  0.37280186     0.01400
C1021       C  0.04046927  0.68857298  0.37341858    -0.24000
C1022       C  0.09910970  0.67754902  0.41841193    -0.28500
C1023       C  0.09973145  0.66001209  0.42850158     0.07000
C1024       C  0.08560774  0.64543082  0.42713736    -0.27200
H1025       H  0.09453676  0.70934315  0.39768037     0.11700
H1026       H  0.06913438  0.71404600  0.37800980     0.12900
H1027       H  0.05747308  0.61976841  0.42223699     0.12000
H1028       H  0.03221593  0.62436527  0.40254497     0.11200
H1029       H  0.01651643  0.64503356  0.38179663     0.16600
H1030       H  0.03943921  0.70241730  0.36614505     0.12500
H1031       H  0.10989217  0.68890369  0.41927348     0.15400
H1032       H  0.08563655  0.63203304  0.43495250     0.15100
C1033       C  0.14067120  0.49355821  0.53006581    -0.17700
C1034       C  0.14024609  0.51321402  0.52338765    -0.19900
C1035       C  0.15659428  0.52356449  0.51986580     0.20700
C1036       C  0.17356853  0.51408327  0.52313684    -0.02800
C1037       C  0.17399911  0.49406920  0.52959599    -0.05900
C1038       C  0.15745062  0.48385275  0.53314814     0.21000
C1039       C  0.19094359  0.48426150  0.53242076     0.19200
C1040       C  0.20729000  0.49477605  0.52911436    -0.17400
C1041       C  0.20686184  0.51478702  0.52298871    -0.19600
C1042       C  0.19007848  0.52454364  0.51986992     0.20700
C1043       C  0.18946714  0.54446153  0.51338948    -0.32600
C1044       C  0.17256068  0.55374046  0.50973589     0.01400
C1045       C  0.15622312  0.54319554  0.51304996    -0.24000
C1046       C  0.15794075  0.46407397  0.53966426    -0.28500
C1047       C  0.17471378  0.45409111  0.54226517     0.07000
C1048       C  0.19118815  0.46415180  0.53850538    -0.27200
H1049       H  0.12786187  0.48588360  0.53271403     0.11700
H1050       H  0.12711465  0.52033493  0.52098405     0.12900
H1051       H  0.22041522  0.48752918  0.53128178     0.12000
H1052       H  0.21966756  0.52256796  0.52054666     0.11200
H1053       H  0.20210288  0.55251561  0.51078241     0.16600
H1054       H  0.14315179  0.55038848  0.51050035     0.12500
H1055       H  0.14521981  0.45624984  0.54241651     0.15400
H1056       H  0.20413764  0.45648453  0.54064014     0.15100
C1057       C  0.41263398  0.81831223  0.65949864    -0.17700
C1058       C  0.39789605  0.82109285  0.64856407    -0.19900
C1059       C  0.39733767  0.83811039  0.63803376     0.20700
C1060       C  0.41162117  0.85265719  0.63873977    -0.02800
C1061       C  0.42648720  0.84984595  0.64974333    -0.05900
C1062       C  0.42707814  0.83249512  0.66008596     0.21000
C1063       C  0.44090988  0.86421618  0.65016268     0.19200
C1064       C  0.44022663  0.88142476  0.63986953    -0.17400
C1065       C  0.42549049  0.88422773  0.62900515    -0.19600
C1066       C  0.41121002  0.86986439  0.62827171     0.20700
C1067       C  0.39664904  0.87232431  0.61710263    -0.32600
C1068       C  0.38243088  0.85779893  0.61614669     0.01400
C1069       C  0.38285093  0.84075045  0.62671901    -0.24000
C1070       C  0.44231022  0.82939210  0.67049428    -0.28500
C1071       C  0.45700211  0.84332009  0.67050944     0.07000
C1072       C  0.45597609  0.86090976  0.66058172    -0.27200
H1073       H  0.41283846  0.80492987  0.66735899     0.11700
H1074       H  0.38700863  0.80981570  0.64823282     0.12900
H1075       H  0.45119955  0.89260233  0.64008427     0.12000
H1076       H  0.42534417  0.89754183  0.62106458     0.11200
H1077       H  0.39665277  0.88541207  0.60893880     0.16600
H1078       H  0.37189514  0.82957085  0.62622540     0.12500
H1079       H  0.44306552  0.81578544  0.67808161     0.15400
H1080       H  0.46711913  0.87189470  0.66077835     0.15100
C1081       C  0.28319651  0.01668101  0.50500242    -0.17700
C1082       C  0.28307239  0.99691978  0.51156533    -0.19900
C1083       C  0.29950332  0.98746417  0.51630237     0.20700
C1084       C  0.31623895  0.99799780  0.51436488    -0.02800
C1085       C  0.31638542  0.01779376  0.50754443    -0.05900
C1086       C  0.29976777  0.02722909  0.50293863     0.21000
C1087       C  0.33315859  0.02815085  0.50538352     0.19200
C1088       C  0.34958814  0.01876865  0.51018609    -0.17400
C1089       C  0.34942007  0.99926675  0.51716082    -0.19600
C1090       C  0.33283467  0.98879396  0.51930373     0.20700
C1091       C  0.33255458  0.96931865  0.52638332    -0.32600
C1092       C  0.31596026  0.95874141  0.52833092     0.01400
C1093       C  0.29950121  0.96775618  0.52308759    -0.24000
C1094       C  0.30003720  0.04701636  0.49632743    -0.28500
C1095       C  0.31673083  0.05728491  0.49399296     0.07000
C1096       C  0.33322089  0.04773924  0.49850676    -0.27200
H1097       H  0.27032818  0.02369877  0.50150220     0.11700
H1098       H  0.27011086  0.98906921  0.51301544     0.12900
H1099       H  0.36256475  0.02655643  0.50861852     0.12000
H1100       H  0.36226757  0.99236470  0.52087211     0.11200
H1101       H  0.34529989  0.96229596  0.53025103     0.16600
H1102       H  0.28667400  0.95967257  0.52471573     0.12500
H1103       H  0.28730069  0.05427225  0.49273950     0.15400
H1104       H  0.34611849  0.05569419  0.49694677     0.15100
C1105       C  0.22330117  0.77161890  0.49800785    -0.17700
C1106       C  0.23373635  0.78794919  0.50430024    -0.19900
C1107       C  0.24518966  0.78525184  0.51818089     0.20700
C1108       C  0.24608621  0.76594499  0.52584284    -0.02800
C1109       C  0.23555425  0.74945274  0.51948612    -0.05900
C1110       C  0.22414110  0.75231826  0.50549324     0.21000
C1111       C  0.23650665  0.73010618  0.52708705     0.19200
C1112       C  0.24790563  0.72744355  0.54101597    -0.17400
C1113       C  0.25834310  0.74379055  0.54731599    -0.19600
C1114       C  0.25756622  0.76307844  0.53979170     0.20700
C1115       C  0.26815777  0.77948664  0.54590692    -0.32600
C1116       C  0.26752738  0.79877639  0.53823054     0.01400
C1117       C  0.25586415  0.80149199  0.52441616    -0.24000
C1118       C  0.21380477  0.73584624  0.49917788    -0.28500
C1119       C  0.21464947  0.71644874  0.50664297     0.07000
C1120       C  0.22606800  0.71376312  0.52063370    -0.27200
H1121       H  0.21459569  0.77407827  0.48725390     0.11700
H1122       H  0.23289001  0.80268614  0.49826875     0.12900
H1123       H  0.24878589  0.71269309  0.54701988     0.12000
H1124       H  0.26708031  0.74132202  0.55804707     0.11200
H1125       H  0.27689749  0.77710776  0.55662818     0.16600
H1126       H  0.25520048  0.81613827  0.51827180     0.12500
H1127       H  0.20524202  0.73820789  0.48833592     0.15400
H1128       H  0.22680526  0.69902419  0.52663696     0.15100
C1129       C  0.91341729  0.69856988  0.38451843    -0.17700
C1130       C  0.89851399  0.69560194  0.39523133    -0.19900
C1131       C  0.89826427  0.67901341  0.40622432     0.20700
C1132       C  0.91314892  0.66522224  0.40634459    -0.02800
C1133       C  0.92816053  0.66819258  0.39553713    -0.05900
C1134       C  0.92833438  0.68498786  0.38458791     0.21000
C1135       C  0.94305438  0.65443446  0.39580361     0.19200
C1136       C  0.94283358  0.63781998  0.40673267    -0.17400
C1137       C  0.92798393  0.63489288  0.41742535    -0.19600
C1138       C  0.91310937  0.64851610  0.41733590     0.20700
C1139       C  0.89825268  0.64572004  0.42811422    -0.32600
C1140       C  0.88328710  0.65935058  0.42813651     0.01400
C1141       C  0.88343411  0.67599622  0.41711102    -0.24000
C1142       C  0.94354487  0.68806175  0.37413758    -0.28500
C1143       C  0.95858921  0.67461966  0.37465508     0.07000
C1144       C  0.95805016  0.65766433  0.38531680    -0.27200
H1145       H  0.91330857  0.71155208  0.37622629     0.11700
H1146       H  0.88719825  0.70634218  0.39495899     0.12900
H1147       H  0.95420066  0.62714735  0.40707761     0.12000
H1148       H  0.92815267  0.62198732  0.42580019     0.11200
H1149       H  0.89855683  0.63296459  0.43660159     0.16600
H1150       H  0.87200495  0.68656801  0.41688882     0.12500
H1151       H  0.94394120  0.70120711  0.36601363     0.15400
H1152       H  0.96948300  0.64705278  0.38557164     0.15100
C1153       C  0.56731054  0.81647563  0.65862909    -0.17700
C1154       C  0.58158065  0.81887909  0.64712048    -0.19900
C1155       C  0.58258205  0.83648175  0.63725307     0.20700
C1156       C  0.56925687  0.85198371  0.63925500    -0.02800
C1157       C  0.55488306  0.84958498  0.65087039    -0.05900
C1158       C  0.55377731  0.83163266  0.66048859     0.21000
C1159       C  0.54134659  0.86491567  0.65251083     0.19200
C1160       C  0.54248833  0.88267383  0.64289262    -0.17400
C1161       C  0.55672958  0.88505728  0.63143695    -0.19600
C1162       C  0.57006068  0.86972096  0.62941635     0.20700
C1163       C  0.58401466  0.87175721  0.61755575    -0.32600
C1164       C  0.59731330  0.85631802  0.61525823     0.01400
C1165       C  0.59652281  0.83874589  0.62529645    -0.24000
C1166       C  0.53879649  0.82884619  0.67128142    -0.28500
C1167       C  0.52484293  0.84366615  0.67230102     0.07000
C1168       C  0.52652361  0.86190203  0.66326744    -0.27200
H1169       H  0.56670752  0.80260684  0.66589542     0.11700
H1170       H  0.59172390  0.80683727  0.64579611     0.12900
H1171       H  0.53219415  0.89458297  0.64403722     0.12000
H1172       H  0.55719012  0.89880207  0.62400406     0.11200
H1173       H  0.58425756  0.88537324  0.61001059     0.16600
H1174       H  0.60665232  0.82674103  0.62381781     0.12500
H1175       H  0.53746955  0.81473148  0.67816347     0.15400
H1176       H  0.51584297  0.87343032  0.66415798     0.15100
C1177       C  0.76249989  0.77254707  0.50183388    -0.17700
C1178       C  0.75221646  0.78868784  0.50867408    -0.19900
C1179       C  0.73727885  0.78471622  0.51916802     0.20700
C1180       C  0.73261417  0.76427667  0.52276504    -0.02800
C1181       C  0.74301233  0.74796477  0.51586169    -0.05900
C1182       C  0.75803632  0.75214713  0.50537543     0.21000
C1183       C  0.73842766  0.72751430  0.51951147     0.19200
C1184       C  0.72342046  0.72354631  0.52994044    -0.17400
C1185       C  0.71310574  0.73971001  0.53676549    -0.19600
C1186       C  0.71761567  0.76013430  0.53328876     0.20700
C1187       C  0.70739291  0.77646186  0.54013798    -0.32600
C1188       C  0.71193416  0.79696483  0.53662629     0.01400
C1189       C  0.72697104  0.80085727  0.52611678    -0.24000
C1190       C  0.76844872  0.73590706  0.49871466    -0.28500
C1191       C  0.76414130  0.71543033  0.50240392     0.07000
C1192       C  0.74898073  0.71141085  0.51275769    -0.27200
H1193       H  0.77399451  0.77603168  0.49380492     0.11700
H1194       H  0.75597432  0.80430377  0.50577068     0.12900
H1195       H  0.71968856  0.70792957  0.53286650     0.12000
H1196       H  0.70161670  0.73623011  0.54480232     0.11200
H1197       H  0.69585191  0.77307941  0.54811030     0.16600
H1198       H  0.73080855  0.81645123  0.52331784     0.12500
H1199       H  0.78008831  0.73935115  0.49087773     0.15400
H1200       H  0.74531199  0.69577212  0.51560877     0.15100
C1201       C  0.94548339  0.37490811  0.65320008    -0.17700
C1202       C  0.93023908  0.37823421  0.64305769    -0.19900
C1203       C  0.91681034  0.36301380  0.64111826     0.20700
C1204       C  0.91856681  0.34437279  0.64967623    -0.02800
C1205       C  0.93391846  0.34106057  0.66003781    -0.05900
C1206       C  0.94750386  0.35634718  0.66162606     0.21000
C1207       C  0.93583590  0.32236597  0.66855999     0.19200
C1208       C  0.92227709  0.30724058  0.66669403    -0.17400
C1209       C  0.90709479  0.31049127  0.65633002    -0.19600
C1210       C  0.90515742  0.32895507  0.64767729     0.20700
C1211       C  0.89019372  0.33221410  0.63693568    -0.32600
C1212       C  0.88845980  0.35074221  0.62822845     0.01400
C1213       C  0.90181961  0.36606899  0.63055279    -0.24000
C1214       C  0.96306381  0.35267917  0.67134113    -0.28500
C1215       C  0.96524214  0.33401874  0.67963752     0.07000
C1216       C  0.95145400  0.31902882  0.67848333    -0.27200
H1217       H  0.95578534  0.38679777  0.65433941     0.11700
H1218       H  0.92905320  0.39264694  0.63657689     0.12900
H1219       H  0.92350772  0.29279826  0.67311896     0.12000
H1220       H  0.89692590  0.29849140  0.65499170     0.11200
H1221       H  0.87994748  0.32034007  0.63538586     0.16600
H1222       H  0.90089243  0.38031929  0.62384791     0.12500
H1223       H  0.97368618  0.36425568  0.67231256     0.15400
H1224       H  0.95321473  0.30458359  0.68482084     0.15100
C1225       C  0.78342009  0.52088362  0.53294006    -0.17700
C1226       C  0.78325301  0.50101741  0.53930874    -0.19900
C1227       C  0.79973654  0.49065155  0.54236690     0.20700
C1228       C  0.81656506  0.50049774  0.53913149    -0.02800
C1229       C  0.81672926  0.52040055  0.53249183    -0.05900
C1230       C  0.80006896  0.53063162  0.52937497     0.21000
C1231       C  0.83356037  0.52993594  0.52877073     0.19200
C1232       C  0.85005570  0.51973477  0.53207200    -0.17400
C1233       C  0.84990002  0.50013795  0.53888273    -0.19600
C1234       C  0.83324651  0.49038171  0.54236251     0.20700
C1235       C  0.83300176  0.47061901  0.54890290    -0.32600
C1236       C  0.81633052  0.46059846  0.55190331     0.01400
C1237       C  0.79972815  0.47060777  0.54853698    -0.24000
C1238       C  0.80035354  0.55025055  0.52244252    -0.28500
C1239       C  0.81706122  0.55953026  0.51822982     0.07000
C1240       C  0.83360334  0.54937306  0.52157936    -0.27200
H1241       H  0.77051326  0.52853333  0.53061343     0.11700
H1242       H  0.77022433  0.49373298  0.54179450     0.12900
H1243       H  0.86308106  0.52688041  0.52931877     0.12000
H1244       H  0.86281065  0.49253429  0.54129518     0.11200
H1245       H  0.84583161  0.46283013  0.55131717     0.16600
H1246       H  0.78686555  0.46291296  0.55096330     0.12500
H1247       H  0.78755612  0.55796331  0.51977506     0.15400
H1248       H  0.84653098  0.55658542  0.51856123     0.15100
C1249       C  0.55835753  0.21695963  0.40631347    -0.17700
C1250       C  0.57375079  0.21351370  0.41632254    -0.19900
C1251       C  0.58543080  0.19686531  0.41292965     0.20700
C1252       C  0.58173141  0.18376251  0.39914243    -0.02800
C1253       C  0.56641255  0.18745053  0.38888079    -0.05900
C1254       C  0.55451542  0.20395397  0.39263215     0.21000
C1255       C  0.56277462  0.17431652  0.37510132     0.19200
C1256       C  0.57443128  0.15769138  0.37168650    -0.17400
C1257       C  0.58944234  0.15385879  0.38199979    -0.19600
C1258       C  0.59312621  0.16671220  0.39578951     0.20700
C1259       C  0.60782304  0.16258265  0.40644630    -0.32600
C1260       C  0.61151512  0.17544901  0.42024255     0.01400
C1261       C  0.60050422  0.19279241  0.42326390    -0.24000
C1262       C  0.53876803  0.20679846  0.38287798    -0.28500
C1263       C  0.53503047  0.19357499  0.36928350     0.07000
C1264       C  0.54724777  0.17765907  0.36526191    -0.27200
H1265       H  0.54938405  0.22971283  0.40934435     0.11700
H1266       H  0.57636930  0.22369407  0.42686983     0.12900
H1267       H  0.57177615  0.14745966  0.36117810     0.12000
H1268       H  0.59810518  0.14074576  0.37925683     0.11200
H1269       H  0.61641149  0.14930522  0.40402517     0.16600
H1270       H  0.60324839  0.20263284  0.43400397     0.12500
H1271       H  0.52924238  0.21902813  0.38598172     0.15400
H1272       H  0.54416054  0.16728239  0.35493054     0.15100
C1273       C  0.70192265  0.99988992  0.52354714    -0.17700
C1274       C  0.70263596  0.02007003  0.51787600    -0.19900
C1275       C  0.68677785  0.02974434  0.51197051     0.20700
C1276       C  0.67002007  0.01897654  0.51176544    -0.02800
C1277       C  0.66924333  0.99872261  0.51773130    -0.05900
C1278       C  0.68530039  0.98909801  0.52357252     0.21000
C1279       C  0.65239121  0.98815633  0.51792060     0.19200
C1280       C  0.63656530  0.99774198  0.51184894    -0.17400
C1281       C  0.63739666  0.01767917  0.50567925    -0.19600
C1282       C  0.65403261  0.02844573  0.50563516     0.20700
C1283       C  0.65496371  0.04850453  0.49958488    -0.32600
C1284       C  0.67159408  0.05938424  0.49987465     0.01400
C1285       C  0.68740559  0.04995015  0.50620601    -0.24000
C1286       C  0.68440537  0.96894570  0.52948444    -0.28500
C1287       C  0.66757179  0.95854504  0.53007425     0.07000
C1288       C  0.65163805  0.96824626  0.52426897    -0.27200
H1289       H  0.71436545  0.99276218  0.52801831     0.11700
H1290       H  0.71561999  0.02810041  0.51807000     0.12900
H1291       H  0.62353321  0.98980926  0.51186397     0.12000
H1292       H  0.62499637  0.02472520  0.50102704     0.11200
H1293       H  0.64268166  0.05574700  0.49486611     0.16600
H1294       H  0.70029921  0.05817096  0.50630418     0.12500
H1295       H  0.69668744  0.96156815  0.53407221     0.15400
H1296       H  0.63865963  0.96019910  0.52455606     0.15100
C1297       C  0.76432722  0.22491144  0.53323780    -0.17700
C1298       C  0.77496723  0.24045131  0.54056813    -0.19900
C1299       C  0.77023742  0.26113717  0.53856936     0.20700
C1300       C  0.75459429  0.26619915  0.52914447    -0.02800
C1301       C  0.74385762  0.25052236  0.52175315    -0.05900
C1302       C  0.74877034  0.22978414  0.52377914     0.21000
C1303       C  0.72825026  0.25562365  0.51230370     0.19200
C1304       C  0.72343899  0.27628727  0.51038532    -0.17400
C1305       C  0.73407331  0.29180647  0.51769602    -0.19600
C1306       C  0.74968959  0.28692073  0.52705801     0.20700
C1307       C  0.76046093  0.30242028  0.53434857    -0.32600
C1308       C  0.77615785  0.29758342  0.54374135     0.01400
C1309       C  0.78090239  0.27682584  0.54578850    -0.24000
C1310       C  0.73810390  0.21430099  0.51625906    -0.28500
C1311       C  0.72255107  0.21925227  0.50671274     0.07000
C1312       C  0.71772654  0.24001219  0.50489363    -0.27200
H1313       H  0.76829719  0.20907069  0.53493774     0.11700
H1314       H  0.78692957  0.23628395  0.54777941     0.12900
H1315       H  0.71147000  0.28045680  0.50318156     0.12000
H1316       H  0.73010022  0.30764664  0.51599491     0.11200
H1317       H  0.75644998  0.31823737  0.53273443     0.16600
H1318       H  0.79295773  0.27276688  0.55288187     0.12500
H1319       H  0.74207895  0.19844155  0.51774300     0.15400
H1320       H  0.70571070  0.24417311  0.49779151     0.15100
loop_ 
_geom_bond_atom_site_label_1 
_geom_bond_atom_site_label_2 
_geom_bond_distance 
_geom_bond_site_symmetry_2 
_ccdc_geom_bond_type 
N1            N2   1.322       .  A
N1            C5   1.346       .  A
N1           Cu9   2.081       .  S
N2            C3   1.344       .  A
N2           Cu8   2.068       .  S
C3            C4   1.384       .  A
C3            H6   1.082       .  S
C4            C5   1.387       .  A
C4         C1284   1.480       .  S
C5            H7   1.082       .  S
Cu8          N11   2.067       .  S
Cu9          N19   2.081       .  S
Cu10         N12   2.067       .  S
Cu10         N18   2.069       .  S
N11          N12   1.321       .  A
N11          C15   1.342       .  A
N12          C13   1.346       .  A
C13          C14   1.384       .  A
C13          H16   1.082       .  S
C14          C15   1.383       .  A
C14        C1260   1.474       .  S
C15          H17   1.082       .  S
N18          N19   1.322       .  A
N18          C22   1.342       .  A
N19          C20   1.346       .  A
C20          C21   1.390       .  A
C20          H23   1.081       .  S
C21          C22   1.387       .  A
C21        C1311   1.487       .  S
C22          H24   1.081       .  S
N25          N26   1.321       .  A
N25          C29   1.347       .  A
N25         Cu33   2.075       .  S
N26          C27   1.341       .  A
N26         Cu32   2.058       .  S
C27          C28   1.381       .  A
C27          H30   1.082       .  S
C28          C29   1.386       .  A
C28        C1236   1.474       .  S
C29          H31   1.082       .  S
Cu32         N35   2.060       .  S
Cu33         N43   2.077       .  S
Cu34         N36   2.084       .  S
Cu34         N42   2.084       .  S
N35          N36   1.320       .  A
N35          C39   1.340       .  A
N36          C37   1.349       .  A
C37          C38   1.391       .  A
C37          H40   1.081       .  S
C38          C39   1.386       .  A
C38        C1212   1.487       .  S
C39          H41   1.081       .  S
N42          N43   1.323       .  A
N42          C46   1.345       .  A
N43          C44   1.344       .  A
C44          C45   1.388       .  A
C44          H47   1.081       .  S
C45          C46   1.389       .  A
C45        C1308   1.488       .  S
C46          H48   1.081       .  S
N49          N50   1.321       .  A
N49          C53   1.348       .  A
N49         Cu57   2.083       .  S
N50          C51   1.343       .  A
N50         Cu56   2.068       .  S
C51          C52   1.383       .  A
C51          H54   1.082       .  S
C52          C53   1.387       .  A
C52        C1287   1.479       .  S
C53          H55   1.082       .  S
Cu56         N59   2.069       .  S
Cu57         N67   2.084       .  S
Cu58         N60   2.080       .  S
Cu58         N66   2.080       .  S
N59          N60   1.320       .  A
N59          C63   1.342       .  A
N60          C61   1.347       .  A
C61          C62   1.392       .  A
C61          H64   1.081       .  S
C62          C63   1.389       .  A
C62        C1164   1.491       .  S
C63          H65   1.081       .  S
N66          N67   1.323       .  A
N66          C70   1.346       .  A
N67          C68   1.345       .  A
C68          C69   1.390       .  A
C68          H71   1.081       .  S
C69          C70   1.389       .  A
C69        C1188   1.491       .  S
C70          H72   1.081       .  S
N73          N74   1.320       .  A
N73          C77   1.345       .  A
N73         Cu81   2.068       .  S
N74          C75   1.342       .  A
N74         Cu80   2.062       .  S
C75          C76   1.384       .  A
C75          H78   1.082       .  S
C76          C77   1.385       .  A
C76        C1239   1.476       .  S
C77          H79   1.082       .  S
Cu80         N83   2.062       .  S
Cu81         N91   2.070       .  S
Cu82         N84   2.085       .  S
Cu82         N90   2.086       .  S
N83          N84   1.320       .  A
N83          C87   1.341       .  A
N84          C85   1.348       .  A
C85          C86   1.391       .  A
C85          H88   1.081       .  S
C86          C87   1.386       .  A
C86        C1140   1.488       .  S
C87          H89   1.081       .  S
N90          N91   1.322       .  A
N90          C94   1.346       .  A
N91          C92   1.344       .  A
C92          C93   1.387       .  A
C92          H95   1.081       .  S
C93          C94   1.390       .  A
C93        C1191   1.489       .  S
C94          H96   1.081       .  S
N97          N98   1.320       .  A
N97         C101   1.346       .  A
N97        Cu105   2.073       .  S
N98          C99   1.340       .  A
N98        Cu104   2.055       .  S
C99         C100   1.381       .  A
C99         H102   1.082       .  S
C100        C101   1.386       .  A
C100       C1092   1.473       .  S
C101        H103   1.082       .  S
Cu104       N107   2.056       .  S
Cu105       N115   2.075       .  S
Cu106       N108   2.077       .  S
Cu106       N114   2.078       .  S
N107        N108   1.320       .  A
N107        C111   1.340       .  A
N108        C109   1.347       .  A
C109        C110   1.390       .  A
C109        H112   1.081       .  S
C110        C111   1.384       .  A
C110       C1068   1.482       .  S
C111        H113   1.081       .  S
N114        N115   1.322       .  A
N114        C118   1.345       .  A
N115        C116   1.343       .  A
C116        C117   1.388       .  A
C116        H119   1.081       .  S
C117        C118   1.388       .  A
C117       C1116   1.487       .  S
C118        H120   1.081       .  S
N121        N122   1.321       .  A
N121        C125   1.348       .  A
N121       Cu129   2.077       .  S
N122        C123   1.343       .  A
N122       Cu128   2.071       .  S
C123        C124   1.384       .  A
C123        H126   1.082       .  S
C124        C125   1.386       .  A
C124       C1044   1.479       .  S
C125        H127   1.082       .  S
Cu128       N131   2.071       .  S
Cu129       N139   2.078       .  S
Cu130       N132   2.073       .  S
Cu130       N138   2.074       .  S
N131        N132   1.320       .  A
N131        C135   1.342       .  A
N132        C133   1.347       .  A
C133        C134   1.389       .  A
C133        H136   1.081       .  S
C134        C135   1.388       .  A
C134       C1023   1.487       .  S
C135        H137   1.081       .  S
N138        N139   1.322       .  A
N138        C142   1.343       .  A
N139        C140   1.345       .  A
C140        C141   1.388       .  A
C140        H143   1.081       .  S
C141        C142   1.387       .  A
C141       C1119   1.487       .  S
C142        H144   1.081       .  S
N145        N146   1.320       .  A
N145        C149   1.345       .  A
N145       Cu153   2.065       .  S
N146        C147   1.341       .  A
N146       Cu152   2.055       .  S
C147        C148   1.383       .  A
C147        H150   1.082       .  S
C148        C149   1.385       .  A
C148       C1095   1.474       .  S
C149        H151   1.082       .  S
Cu152       N155   2.056       .  S
Cu153       N163   2.066       .  S
Cu154       N156   2.085       .  S
Cu154       N162   2.086       .  S
N155        N156   1.321       .  A
N155        C159   1.340       .  A
N156        C157   1.348       .  A
C157        C158   1.391       .  A
C157        H160   1.081       .  S
C158        C159   1.383       .  A
C158        C972   1.483       .  S
C159        H161   1.081       .  S
N162        N163   1.323       .  A
N162        C166   1.346       .  A
N163        C164   1.343       .  A
C164        C165   1.383       .  A
C164        H167   1.082       .  S
C165        C166   1.387       .  A
C165        C999   1.480       .  S
C166        H168   1.082       .  S
N169        N170   1.320       .  A
N169        C173   1.347       .  A
N169       Cu177   2.072       .  S
N170        C171   1.341       .  A
N170       Cu176   2.059       .  S
C171        C172   1.382       .  A
C171        H174   1.082       .  S
C172        C173   1.386       .  A
C172       C1047   1.474       .  S
C173        H175   1.082       .  S
Cu176       N179   2.060       .  S
Cu177       N187   2.074       .  S
Cu178       N180   2.085       .  S
Cu178       N186   2.086       .  S
N179        N180   1.320       .  A
N179        C183   1.339       .  A
N180        C181   1.350       .  A
C181        C182   1.392       .  A
C181        H184   1.081       .  S
C182        C183   1.385       .  A
C182        C948   1.487       .  S
C183        H185   1.081       .  S
N186        N187   1.324       .  A
N186        C190   1.346       .  A
N187        C188   1.343       .  A
C188        C189   1.384       .  A
C188        H191   1.081       .  S
C189        C190   1.387       .  A
C189        C996   1.483       .  S
C190        H192   1.082       .  S
C193        C194   1.398   1_455  A
C193        C198   1.403       .  A
C193       C1020   1.481       .  S
C194        C195   1.398       .  A
C194        H199   1.084       .  S
C195        C196   1.404       .  A
C195       C1143   1.484       .  S
C196        C197   1.413       .  A
C196        H200   1.083       .  S
C197        C198   1.414   1_655  A
C197        C927   1.493       .  S
C198        H201   1.083       .  S
C202        C203   1.410       .  A
C202        C207   1.411   1_655  A
C202        C924   1.493       .  S
C203        C204   1.404       .  A
C203        H208   1.083       .  S
C204        C205   1.400       .  A
C204        C903   1.480       .  S
C205        C206   1.402   1_655  A
C205        H209   1.084       .  S
C206        C207   1.403       .  A
C206        C876   1.480       .  S
C207        H210   1.083       .  S
C211        C212   1.408       .  A
C211        C216   1.411       .  A
C211        C855   1.491       .  S
C212        C213   1.401       .  A
C212        H217   1.083       .  S
C213        C214   1.397       .  A
C213       C1263   1.474       .  S
C214        C215   1.400       .  A
C214        H218   1.084       .  S
C215        C216   1.406       .  A
C215        C975   1.479       .  S
C216        H219   1.083       .  S
C220        C221   1.413       .  A
C220        C225   1.412       .  A
C220        C852   1.493       .  S
C221        C222   1.403       .  A
C221        H226   1.083       .  S
C222        C223   1.399       .  A
C222        C807   1.479       .  S
C223        C224   1.400       .  A
C223        H227   1.084       .  S
C224        C225   1.403       .  A
C224        C828   1.483       .  S
C225        H228   1.083       .  S
N229        N230   1.321       .  A
N229        C233   1.349       .  A
N229       Cu237   2.085       .  S
N230        C231   1.341       .  A
N230       Cu236   2.060       .  S
C231        C232   1.382       .  A
C231        H234   1.082       .  S
C232        C233   1.389       .  A
C232        C756   1.480       .  S
C233        H235   1.082       .  S
Cu236       N239   2.061       .  S
Cu237       N247   2.087       .  S
Cu238       N240   2.084       .  S
Cu238       N246   2.086       .  S
N239        N240   1.321       .  A
N239        C243   1.342       .  A
N240        C241   1.348       .  A
C241        C242   1.388       .  A
C241        H244   1.082       .  S
C242        C243   1.383       .  A
C242        C900   1.480       .  S
C243        H245   1.082       .  S
N246        N247   1.323       .  A
N246        C250   1.346       .  A
N247        C248   1.345       .  A
C248        C249   1.390       .  A
C248        H251   1.081       .  S
C249        C250   1.390       .  A
C249        C780   1.493       .  S
C250        H252   1.081       .  S
N253        N254   1.321       .  A
N253        C257   1.349       .  A
N253       Cu261   2.086       .  S
N254        C255   1.343       .  A
N254       Cu260   2.066       .  S
C255        C256   1.383       .  A
C255        H258   1.082       .  S
C256        C257   1.389       .  A
C256        C732   1.482       .  S
C257        H259   1.082   1_556  S
Cu260       N263   2.067       .  S
Cu261       N271   2.088       .  S
Cu262       N264   2.091       .  S
Cu262       N270   2.092       .  S
N263        N264   1.322       .  A
N263        C267   1.343       .  A
N264        C265   1.350       .  A
C265        C266   1.390       .  A
C265        H268   1.082       .  S
C266        C267   1.383       .  A
C266        C708   1.483       .  S
C267        H269   1.082       .  S
N270        N271   1.323       .  A
N270        C274   1.347       .  A
N271        C272   1.346       .  A
C272        C273   1.390       .  A
C272        H275   1.081   1_556  S
C273        C274   1.391       .  A
C273        C783   1.495       .  S
C274        H276   1.081       .  S
N277        N278   1.321       .  A
N277        C281   1.348       .  A
N277       Cu285   2.084       .  S
N278        C279   1.343       .  A
N278       Cu284   2.061       .  S
C279        C280   1.383       .  A
C279        H282   1.082       .  S
C280        C281   1.388       .  A
C280        C735   1.480       .  S
C281        H283   1.082       .  S
Cu284       N287   2.061       .  S
Cu285       N295   2.085       .  S
Cu286       N288   2.086       .  S
Cu286       N294   2.087       .  S
N287        N288   1.320       .  A
N287        C291   1.341       .  A
N288        C289   1.348       .  A
C289        C290   1.391       .  A
C289        H292   1.081       .  S
C290        C291   1.385       .  A
C290        C831   1.486       .  S
C291        H293   1.081       .  S
N294        N295   1.323       .  A
N294        C298   1.347       .  A
N295        C296   1.345       .  A
C296        C297   1.388       .  A
C296        H299   1.081       .  S
C297        C298   1.389       .  A
C297        C684   1.490       .  S
C298        H300   1.081       .  S
N301        N302   1.322   1_554  A
N301        C305   1.348       .  A
N301       Cu309   2.082       .  S
N302        C303   1.342       .  A
N302       Cu308   2.064       .  S
C303        C304   1.382   1_556  A
C303        H306   1.082       .  S
C304        C305   1.387       .  A
C304        C759   1.478       .  S
C305        H307   1.082       .  S
Cu308       N311   2.065       .  S
Cu309       N319   2.083   1_554  S
Cu310       N312   2.085       .  S
Cu310       N318   2.086       .  S
N311        N312   1.321       .  A
N311        C315   1.344       .  A
N312        C313   1.347       .  A
C313        C314   1.390       .  A
C313        H316   1.082       .  S
C314        C315   1.385       .  A
C314        C660   1.484       .  S
C315        H317   1.082       .  S
N318        N319   1.323       .  A
N318        C322   1.346       .  A
N319        C320   1.346   1_556  A
C320        C321   1.388       .  A
C320        H323   1.081       .  S
C321        C322   1.390   1_554  A
C321        C687   1.490       .  S
C322        H324   1.081       .  S
C325        C326   1.410       .  A
C325        C330   1.413   1_655  A
C325        C612   1.492       .  S
C326        C327   1.401       .  A
C326        H331   1.083       .  S
C327        C328   1.398       .  A
C327        C663   1.474       .  S
C328        C329   1.404   1_655  A
C328        H332   1.084       .  S
C329        C330   1.407       .  A
C329        C636   1.488       .  S
C330        H333   1.083       .  S
C334        C335   1.411       .  A
C334        C339   1.412   1_655  A
C334        C615   1.491   1_655  S
C335        C336   1.404       .  A
C335        H340   1.083       .  S
C336        C337   1.400       .  A
C336       C1215   1.479       .  S
C337        C338   1.400   1_655  A
C337        H341   1.085       .  S
C338        C339   1.403       .  A
C338        C951   1.481       .  S
C339        H342   1.083       .  S
N343        N344   1.323       .  A
N343        C347   1.347       .  A
N343       Cu351   2.083       .  S
N344        C345   1.345       .  A
N344       Cu350   2.076       .  S
C345        C346   1.384       .  A
C345        H348   1.082       .  S
C346        C347   1.386       .  A
C346        C567   1.481       .  S
C347        H349   1.082       .  S
Cu350       N353   2.076       .  S
Cu351       N361   2.083       .  S
Cu352       N354   2.070       .  S
Cu352       N360   2.070       .  S
N353        N354   1.322       .  A
N353        C357   1.346       .  A
N354        C355   1.343       .  A
C355        C356   1.384       .  A
C355        H358   1.082       .  S
C356        C357   1.386       .  A
C356        C879   1.479       .  S
C357        H359   1.082       .  S
N360        N361   1.321       .  A
N360        C364   1.345       .  A
N361        C362   1.345       .  A
C362        C363   1.391       .  A
C362        H365   1.081       .  S
C363        C364   1.388       .  A
C363        C588   1.490       .  S
C364        H366   1.081       .  S
N367        N368   1.320       .  A
N367        C371   1.348       .  A
N367       Cu375   2.077       .  S
N368        C369   1.345       .  A
N368       Cu374   2.077       .  S
C369        C370   1.388       .  A
C369        H372   1.082       .  S
C370        C371   1.388       .  A
C370        C543   1.486       .  S
C371        H373   1.082       .  S
Cu374       N377   2.077       .  S
Cu375       N385   2.078       .  S
Cu376       N378   2.086       .  S
Cu376       N384   2.087       .  S
N377        N378   1.322       .  A
N377        C381   1.342       .  A
N378        C379   1.350       .  A
C379        C380   1.389       .  A
C379        H382   1.082       .  S
C380        C381   1.385       .  A
C380        C516   1.486       .  S
C381        H383   1.082       .  S
N384        N385   1.323       .  A
N384        C388   1.346       .  A
N385        C386   1.344       .  A
C386        C387   1.387       .  A
C386        H389   1.081       .  S
C387        C388   1.391       .  A
C387        C591   1.491       .  S
C388        H390   1.081       .  S
N391        N392   1.321       .  A
N391        C395   1.349       .  A
N391       Cu399   2.085       .  S
N392        C393   1.344       .  A
N392       Cu398   2.074       .  S
C393        C394   1.386       .  A
C393        H396   1.082       .  S
C394        C395   1.389       .  A
C394        C540   1.485       .  S
C395        H397   1.082       .  S
Cu398       N401   2.074       .  S
Cu399       N409   2.085       .  S
Cu400       N402   2.077       .  S
Cu400       N408   2.078       .  S
N401        N402   1.321       .  A
N401        C405   1.342       .  A
N402        C403   1.347       .  A
C403        C404   1.390       .  A
C403        H406   1.081       .  S
C404        C405   1.389       .  A
C404        C804   1.489       .  S
C405        H407   1.081       .  S
N408        N409   1.323       .  A
N408        C412   1.346       .  A
N409        C410   1.344       .  A
C410        C411   1.389       .  A
C410        H413   1.081       .  S
C411        C412   1.388       .  A
C411        C495   1.489       .  S
C412        H414   1.081       .  S
N415        N416   1.321   1_554  A
N415        C419   1.348       .  A
N415       Cu423   2.077   1_554  S
N416        C417   1.342   1_556  A
N416       Cu422   2.070       .  S
C417        C418   1.383       .  A
C417        H420   1.082   1_554  S
C418        C419   1.387       .  A
C418        C564   1.478       .  S
C419        H421   1.082       .  S
Cu422       N425   2.071       .  S
Cu423       N433   2.078       .  S
Cu424       N426   2.086       .  S
Cu424       N432   2.087       .  S
N425        N426   1.320       .  A
N425        C429   1.342       .  A
N426        C427   1.350       .  A
C427        C428   1.392       .  A
C427        H430   1.082       .  S
C428        C429   1.387       .  A
C428        C639   1.490       .  S
C429        H431   1.081       .  S
N432        N433   1.323       .  A
N432        C436   1.345       .  A
N433        C434   1.345   1_556  A
C434        C435   1.388   1_554  A
C434        H437   1.081       .  S
C435        C436   1.390       .  A
C435        C492   1.490   1_556  S
C436        H438   1.081       .  S
C439        C440   1.410       .  A
C439        C444   1.412       .  A
C439        C468   1.493       .  S
C440        C441   1.404       .  A
C440        H445   1.083       .  S
C441        C442   1.399       .  A
C441        C711   1.480       .  S
C442        C443   1.405       .  A
C442        H446   1.084       .  S
C443        C444   1.407       .  A
C443        C519   1.491       .  S
C444        H447   1.083       .  S
C448        C449   1.413       .  A
C448        C453   1.412       .  A
C448        C471   1.492       .  S
C449        C450   1.405       .  A
C449        H454   1.083       .  S
C450        C451   1.400       .  A
C450       C1167   1.482       .  S
C451        C452   1.399       .  A
C451        H455   1.084       .  S
C452        C453   1.403       .  A
C452       C1071   1.484       .  S
C453        H456   1.083       .  S
C457        C458   1.402       .  A
C457        C462   1.404       .  A
C457        H473   1.083       .  S
C458        C459   1.405       .  A
C458        H474   1.083       .  S
C459        C469   1.407       .  A
C459        C460   1.411       .  A
C460        C466   1.411       .  A
C460        C461   1.414       .  A
C461        C463   1.410       .  A
C461        C462   1.412       .  A
C462        C470   1.408       .  A
C463        C472   1.401       .  A
C463        C464   1.403       .  A
C464        C465   1.398       .  A
C464        H475   1.084       .  S
C465        C466   1.403       .  A
C465        H476   1.084       .  S
C466        C467   1.403       .  A
C467        C468   1.408       .  A
C467        H477   1.084       .  S
C468        C469   1.410       .  A
C469        H478   1.084       .  S
C470        C471   1.409       .  A
C470        H479   1.084       .  S
C471        C472   1.409       .  A
C472        H480   1.084       .  S
C481        C482   1.398       .  A
C481        C486   1.403       .  A
C481        H497   1.084       .  S
C482        C483   1.403       .  A
C482        H498   1.084   1_554  S
C483        C493   1.402       .  A
C483        C484   1.410       .  A
C484        C490   1.410       .  A
C484        C485   1.413       .  A
C485        C487   1.411       .  A
C485        C486   1.410       .  A
C486        C494   1.402       .  A
C487        C496   1.406       .  A
C487        C488   1.404       .  A
C488        C489   1.401       .  A
C488        H499   1.084       .  S
C489        C490   1.404       .  A
C489        H500   1.083       .  S
C490        C491   1.405       .  A
C491        C492   1.410       .  A
C491        H501   1.082       .  S
C492        C493   1.408       .  A
C493        H502   1.082   1_554  S
C494        C495   1.408       .  A
C494        H503   1.082       .  S
C495        C496   1.410       .  A
C496        H504   1.083       .  S
C505        C506   1.403       .  A
C505        C510   1.405       .  A
C505        H521   1.083       .  S
C506        C507   1.405       .  A
C506        H522   1.083       .  S
C507        C517   1.410       .  A
C507        C508   1.412       .  A
C508        C514   1.410       .  A
C508        C509   1.414       .  A
C509        C511   1.410       .  A
C509        C510   1.412       .  A
C510        C518   1.410       .  A
C511        C520   1.399       .  A
C511        C512   1.402       .  A
C512        C513   1.396       .  A
C512        H523   1.084       .  S
C513        C514   1.402       .  A
C513        H524   1.084       .  S
C514        C515   1.399       .  A
C515        C516   1.406       .  A
C515        H525   1.083       .  S
C516        C517   1.410       .  A
C517        H526   1.084       .  S
C518        C519   1.410       .  A
C518        H527   1.084       .  S
C519        C520   1.407       .  A
C520        H528   1.084       .  S
C529        C530   1.397   1_565  A
C529        C534   1.403       .  A
C529        H545   1.084       .  S
C530        C531   1.403       .  A
C530        H546   1.084       .  S
C531        C541   1.401       .  A
C531        C532   1.411       .  A
C532        C538   1.412       .  A
C532        C533   1.414   1_545  A
C533        C535   1.412       .  A
C533        C534   1.411       .  A
C534        C542   1.402       .  A
C535        C544   1.409       .  A
C535        C536   1.405       .  A
C536        C537   1.403   1_565  A
C536        H547   1.083       .  S
C537        C538   1.405       .  A
C537        H548   1.083       .  S
C538        C539   1.409       .  A
C539        C540   1.409       .  A
C539        H549   1.084       .  S
C540        C541   1.406       .  A
C541        H550   1.084       .  S
C542        C543   1.406   1_554  A
C542        H551   1.084       .  S
C543        C544   1.409   1_556  A
C544        H552   1.084   1_554  S
C553        C554   1.398       .  A
C553        C558   1.403       .  A
C553        H569   1.084       .  S
C554        C555   1.403       .  A
C554        H570   1.084       .  S
C555        C565   1.401       .  A
C555        C556   1.411       .  A
C556        C562   1.413       .  A
C556        C557   1.413       .  A
C557        C559   1.412       .  A
C557        C558   1.412       .  A
C558        C566   1.403       .  A
C559        C568   1.405       .  A
C559        C560   1.404       .  A
C560        C561   1.401       .  A
C560        H571   1.083       .  S
C561        C562   1.404       .  A
C561        H572   1.083       .  S
C562        C563   1.406       .  A
C563        C564   1.406       .  A
C563        H573   1.084       .  S
C564        C565   1.405       .  A
C565        H574   1.084       .  S
C566        C567   1.406       .  A
C566        H575   1.084       .  S
C567        C568   1.407       .  A
C568        H576   1.084       .  S
C577        C578   1.400       .  A
C577        C582   1.404       .  A
C577        H593   1.083       .  S
C578        C579   1.404       .  A
C578        H594   1.084       .  S
C579        C589   1.405       .  A
C579        C580   1.410       .  A
C580        C586   1.410       .  A
C580        C581   1.413       .  A
C581        C583   1.411   1_554  A
C581        C582   1.410       .  A
C582        C590   1.404       .  A
C583        C592   1.403       .  A
C583        C584   1.403       .  A
C584        C585   1.398   1_556  A
C584        H595   1.084       .  S
C585        C586   1.403       .  A
C585        H596   1.084   1_554  S
C586        C587   1.403       .  A
C587        C588   1.408       .  A
C587        H597   1.082       .  S
C588        C589   1.410       .  A
C589        H598   1.082       .  S
C590        C591   1.410   1_554  A
C590        H599   1.082       .  S
C591        C592   1.409       .  A
C592        H600   1.082       .  S
C601        C602   1.398       .  A
C601        C606   1.403       .  A
C601        H617   1.083       .  S
C602        C603   1.403       .  A
C602        H618   1.084       .  S
C603        C613   1.403       .  A
C603        C604   1.411   1_455  A
C604        C610   1.411       .  A
C604        C605   1.414       .  A
C605        C607   1.412       .  A
C605        C606   1.411   1_655  A
C606        C614   1.402       .  A
C607        C616   1.407       .  A
C607        C608   1.404       .  A
C608        C609   1.401       .  A
C608        H619   1.083       .  S
C609        C610   1.405       .  A
C609        H620   1.084       .  S
C610        C611   1.407       .  A
C611        C612   1.410       .  A
C611        H621   1.084       .  S
C612        C613   1.407   1_655  A
C613        H622   1.084       .  S
C614        C615   1.408       .  A
C614        H623   1.084       .  S
C615        C616   1.409   1_455  A
C616        H624   1.084       .  S
C625        C626   1.403       .  A
C625        C630   1.405       .  A
C625        H641   1.083       .  S
C626        C627   1.405       .  A
C626        H642   1.083       .  S
C627        C637   1.410       .  A
C627        C628   1.412       .  A
C628        C634   1.411       .  A
C628        C629   1.414       .  A
C629        C631   1.410       .  A
C629        C630   1.411       .  A
C630        C638   1.410       .  A
C631        C640   1.400       .  A
C631        C632   1.403       .  A
C632        C633   1.396       .  A
C632        H643   1.084       .  S
C633        C634   1.402       .  A
C633        H644   1.084       .  S
C634        C635   1.399       .  A
C635        C636   1.406       .  A
C635        H645   1.084       .  S
C636        C637   1.409       .  A
C637        H646   1.084       .  S
C638        C639   1.411       .  A
C638        H647   1.083       .  S
C639        C640   1.408       .  A
C640        H648   1.082       .  S
C649        C650   1.399       .  A
C649        C654   1.403       .  A
C649        H665   1.083       .  S
C650        C651   1.404       .  A
C650        H666   1.084       .  S
C651        C661   1.404       .  A
C651        C652   1.411       .  A
C652        C658   1.411       .  A
C652        C653   1.413       .  A
C653        C655   1.412       .  A
C653        C654   1.413       .  A
C654        C662   1.404       .  A
C655        C664   1.404       .  A
C655        C656   1.403       .  A
C656        C657   1.400       .  A
C656        H667   1.084       .  S
C657        C658   1.404       .  A
C657        H668   1.084       .  S
C658        C659   1.404       .  A
C659        C660   1.408       .  A
C659        H669   1.083       .  S
C660        C661   1.406       .  A
C661        H670   1.083       .  S
C662        C663   1.403       .  A
C662        H671   1.084       .  S
C663        C664   1.404       .  A
C664        H672   1.084       .  S
C673        C674   1.400       .  A
C673        C678   1.404       .  A
C673        H689   1.083       .  S
C674        C675   1.404       .  A
C674        H690   1.083       .  S
C675        C685   1.406       .  A
C675        C676   1.411       .  A
C676        C682   1.410       .  A
C676        C677   1.414       .  A
C677        C679   1.411       .  A
C677        C678   1.410       .  A
C678        C686   1.405       .  A
C679        C688   1.404       .  A
C679        C680   1.404   1_554  A
C680        C681   1.399   1_556  A
C680        H691   1.084       .  S
C681        C682   1.404       .  A
C681        H692   1.084   1_554  S
C682        C683   1.404       .  A
C683        C684   1.409       .  A
C683        H693   1.082       .  S
C684        C685   1.409       .  A
C685        H694   1.083       .  S
C686        C687   1.410       .  A
C686        H695   1.082       .  S
C687        C688   1.409       .  A
C688        H696   1.083   1_554  S
C697        C698   1.401       .  A
C697        C702   1.404       .  A
C697        H713   1.083       .  S
C698        C699   1.404       .  A
C698        H714   1.084       .  S
C699        C709   1.407       .  A
C699        C700   1.413       .  A
C700        C706   1.411       .  A
C700        C701   1.414       .  A
C701        C703   1.413       .  A
C701        C702   1.412       .  A
C702        C710   1.405       .  A
C703        C712   1.404       .  A
C703        C704   1.403       .  A
C704        C705   1.399       .  A
C704        H715   1.084       .  S
C705        C706   1.404       .  A
C705        H716   1.083       .  S
C706        C707   1.402       .  A
C707        C708   1.407       .  A
C707        H717   1.084       .  S
C708        C709   1.407       .  A
C709        H718   1.084       .  S
C710        C711   1.406       .  A
C710        H719   1.084       .  S
C711        C712   1.404       .  A
C712        H720   1.084       .  S
C721        C722   1.399   1_545  A
C721        C726   1.404       .  A
C721        H737   1.084       .  S
C722        C723   1.404       .  A
C722        H738   1.084       .  S
C723        C733   1.403   1_554  A
C723        C724   1.411       .  A
C724        C730   1.412       .  A
C724        C725   1.413   1_565  A
C725        C727   1.412       .  A
C725        C726   1.411       .  A
C726        C734   1.403       .  A
C727        C736   1.405       .  A
C727        C728   1.404       .  A
C728        C729   1.400   1_545  A
C728        H739   1.083       .  S
C729        C730   1.404       .  A
C729        H740   1.083       .  S
C730        C731   1.406   1_554  A
C731        C732   1.406       .  A
C731        H741   1.084       .  S
C732        C733   1.407       .  A
C733        H742   1.084       .  S
C734        C735   1.406       .  A
C734        H743   1.084       .  S
C735        C736   1.406       .  A
C736        H744   1.084       .  S
C745        C746   1.401       .  A
C745        C750   1.404       .  A
C745        H761   1.083       .  S
C746        C747   1.404       .  A
C746        H762   1.083       .  S
C747        C757   1.407       .  A
C747        C748   1.412       .  A
C748        C754   1.411       .  A
C748        C749   1.412       .  A
C749        C751   1.411       .  A
C749        C750   1.412       .  A
C750        C758   1.406       .  A
C751        C760   1.400       .  A
C751        C752   1.403       .  A
C752        C753   1.397       .  A
C752        H763   1.084       .  S
C753        C754   1.403       .  A
C753        H764   1.084       .  S
C754        C755   1.400       .  A
C755        C756   1.406       .  A
C755        H765   1.084       .  S
C756        C757   1.406       .  A
C757        H766   1.084       .  S
C758        C759   1.406       .  A
C758        H767   1.084       .  S
C759        C760   1.405       .  A
C760        H768   1.084       .  S
C769        C770   1.401       .  A
C769        C774   1.405       .  A
C769        H785   1.083       .  S
C770        C771   1.404       .  A
C770        H786   1.084       .  S
C771        C781   1.406       .  A
C771        C772   1.411       .  A
C772        C778   1.410       .  A
C772        C773   1.415       .  A
C773        C775   1.411       .  A
C773        C774   1.410       .  A
C774        C782   1.406       .  A
C775        C784   1.405   1_554  A
C775        C776   1.404   1_554  A
C776        C777   1.399   1_556  A
C776        H787   1.084       .  S
C777        C778   1.404       .  A
C777        H788   1.083       .  S
C778        C779   1.404       .  A
C779        C780   1.410       .  A
C779        H789   1.082       .  S
C780        C781   1.410       .  A
C781        H790   1.082       .  S
C782        C783   1.411   1_554  A
C782        H791   1.082       .  S
C783        C784   1.410       .  A
C784        H792   1.082       .  S
C793        C794   1.396       .  A
C793        C798   1.402       .  A
C793        H809   1.084       .  S
C794        C795   1.403       .  A
C794        H810   1.084       .  S
C795        C805   1.400       .  A
C795        C796   1.410       .  A
C796        C802   1.411       .  A
C796        C797   1.412       .  A
C797        C799   1.413       .  A
C797        C798   1.411       .  A
C798        C806   1.398       .  A
C799        C808   1.408       .  A
C799        C800   1.404       .  A
C800        C801   1.402       .  A
C800        H811   1.083       .  S
C801        C802   1.405       .  A
C801        H812   1.083       .  S
C802        C803   1.407       .  A
C803        C804   1.410       .  A
C803        H813   1.083       .  S
C804        C805   1.408       .  A
C805        H814   1.082       .  S
C806        C807   1.404       .  A
C806        H815   1.085       .  S
C807        C808   1.406       .  A
C808        H816   1.084       .  S
C817        C818   1.401       .  A
C817        C822   1.404       .  A
C817        H833   1.083       .  S
C818        C819   1.404       .  A
C818        H834   1.083       .  S
C819        C829   1.406       .  A
C819        C820   1.412       .  A
C820        C826   1.411       .  A
C820        C821   1.412       .  A
C821        C823   1.410       .  A
C821        C822   1.411       .  A
C822        C830   1.406       .  A
C823        C832   1.399       .  A
C823        C824   1.403       .  A
C824        C825   1.397       .  A
C824        H835   1.084       .  S
C825        C826   1.402       .  A
C825        H836   1.084       .  S
C826        C827   1.398       .  A
C827        C828   1.406       .  A
C827        H837   1.085       .  S
C828        C829   1.407       .  A
C829        H838   1.084       .  S
C830        C831   1.408       .  A
C830        H839   1.083       .  S
C831        C832   1.408       .  A
C832        H840   1.082       .  S
C841        C842   1.400       .  A
C841        C846   1.404       .  A
C841        H857   1.084       .  S
C842        C843   1.404       .  A
C842        H858   1.083       .  S
C843        C853   1.405       .  A
C843        C844   1.411       .  A
C844        C850   1.410       .  A
C844        C845   1.413       .  A
C845        C847   1.410       .  A
C845        C846   1.411       .  A
C846        C854   1.405       .  A
C847        C856   1.402       .  A
C847        C848   1.403       .  A
C848        C849   1.398       .  A
C848        H859   1.084       .  S
C849        C850   1.404       .  A
C849        H860   1.084       .  S
C850        C851   1.402       .  A
C851        C852   1.410       .  A
C851        H861   1.083       .  S
C852        C853   1.409       .  A
C853        H862   1.083       .  S
C854        C855   1.408       .  A
C854        H863   1.084       .  S
C855        C856   1.410       .  A
C856        H864   1.084       .  S
C865        C866   1.400       .  A
C865        C870   1.404       .  A
C865        H881   1.083       .  S
C866        C867   1.404       .  A
C866        H882   1.084       .  S
C867        C877   1.405       .  A
C867        C868   1.412       .  A
C868        C874   1.412       .  A
C868        C869   1.411       .  A
C869        C871   1.411       .  A
C869        C870   1.412       .  A
C870        C878   1.405       .  A
C871        C880   1.400       .  A
C871        C872   1.403       .  A
C872        C873   1.397       .  A
C872        H883   1.084       .  S
C873        C874   1.403       .  A
C873        H884   1.084       .  S
C874        C875   1.401       .  A
C875        C876   1.405       .  A
C875        H885   1.085       .  S
C876        C877   1.406       .  A
C877        H886   1.084       .  S
C878        C879   1.407       .  A
C878        H887   1.084       .  S
C879        C880   1.405       .  A
C880        H888   1.084       .  S
C889        C890   1.400       .  A
C889        C894   1.404       .  A
C889        H905   1.083       .  S
C890        C891   1.404       .  A
C890        H906   1.084       .  S
C891        C901   1.405       .  A
C891        C892   1.412       .  A
C892        C898   1.411       .  A
C892        C893   1.412       .  A
C893        C895   1.412       .  A
C893        C894   1.412       .  A
C894        C902   1.404       .  A
C895        C904   1.403       .  A
C895        C896   1.403       .  A
C896        C897   1.399       .  A
C896        H907   1.084       .  S
C897        C898   1.404       .  A
C897        H908   1.084       .  S
C898        C899   1.402       .  A
C899        C900   1.407       .  A
C899        H909   1.084       .  S
C900        C901   1.405       .  A
C901        H910   1.084       .  S
C902        C903   1.406       .  A
C902        H911   1.084       .  S
C903        C904   1.405       .  A
C904        H912   1.084       .  S
C913        C914   1.400       .  A
C913        C918   1.404       .  A
C913        H929   1.084       .  S
C914        C915   1.404       .  A
C914        H930   1.084       .  S
C915        C925   1.404       .  A
C915        C916   1.411       .  A
C916        C922   1.410   1_655  A
C916        C917   1.413       .  A
C917        C919   1.411   1_655  A
C917        C918   1.411       .  A
C918        C926   1.404       .  A
C919        C928   1.404       .  A
C919        C920   1.403       .  A
C920        C921   1.399       .  A
C920        H931   1.084       .  S
C921        C922   1.404       .  A
C921        H932   1.084       .  S
C922        C923   1.403       .  A
C923        C924   1.410   1_455  A
C923        H933   1.084       .  S
C924        C925   1.410       .  A
C925        H934   1.083       .  S
C926        C927   1.410       .  A
C926        H935   1.083       .  S
C927        C928   1.409   1_655  A
C928        H936   1.084       .  S
C937        C938   1.402       .  A
C937        C942   1.405       .  A
C937        H953   1.083       .  S
C938        C939   1.405       .  A
C938        H954   1.084       .  S
C939        C949   1.408       .  A
C939        C940   1.412       .  A
C940        C946   1.410       .  A
C940        C941   1.412       .  A
C941        C943   1.412       .  A
C941        C942   1.412       .  A
C942        C950   1.408       .  A
C943        C952   1.399       .  A
C943        C944   1.402       .  A
C944        C945   1.396       .  A
C944        H955   1.084       .  S
C945        C946   1.403       .  A
C945        H956   1.084       .  S
C946        C947   1.398       .  A
C947        C948   1.408       .  A
C947        H957   1.082       .  S
C948        C949   1.409       .  A
C949        H958   1.083       .  S
C950        C951   1.407       .  A
C950        H959   1.084       .  S
C951        C952   1.404       .  A
C952        H960   1.085       .  S
C961        C962   1.397       .  A
C961        C966   1.403       .  A
C961        H977   1.084       .  S
C962        C963   1.403       .  A
C962        H978   1.084       .  S
C963        C973   1.399       .  A
C963        C964   1.410       .  A
C964        C970   1.412       .  A
C964        C965   1.411       .  A
C965        C967   1.413       .  A
C965        C966   1.411       .  A
C966        C974   1.399       .  A
C967        C976   1.405       .  A
C967        C968   1.404       .  A
C968        C969   1.400       .  A
C968        H979   1.084       .  S
C969        C970   1.404       .  A
C969        H980   1.083       .  S
C970        C971   1.405       .  A
C971        C972   1.407       .  A
C971        H981   1.083       .  S
C972        C973   1.408       .  A
C973        H982   1.083       .  S
C974        C975   1.406       .  A
C974        H983   1.085       .  S
C975        C976   1.405       .  A
C976        H984   1.084       .  S
C985        C986   1.399       .  A
C985        C990   1.404       .  A
C985       H1001   1.084       .  S
C986        C987   1.404       .  A
C986       H1002   1.084       .  S
C987        C997   1.404       .  A
C987        C988   1.412       .  A
C988        C994   1.410       .  A
C988        C989   1.411       .  A
C989        C991   1.412       .  A
C989        C990   1.411       .  A
C990        C998   1.403       .  A
C991       C1000   1.402       .  A
C991        C992   1.403       .  A
C992        C993   1.398       .  A
C992       H1003   1.084       .  S
C993        C994   1.403       .  A
C993       H1004   1.084       .  S
C994        C995   1.401       .  A
C995        C996   1.408       .  A
C995       H1005   1.083       .  S
C996        C997   1.407       .  A
C997       H1006   1.083       .  S
C998        C999   1.408       .  A
C998       H1007   1.083       .  S
C999       C1000   1.405       .  A
C1000      H1008   1.084       .  S
C1009      C1010   1.402       .  A
C1009      C1014   1.405       .  A
C1009      H1025   1.083       .  S
C1010      C1011   1.405       .  A
C1010      H1026   1.083       .  S
C1011      C1021   1.409       .  A
C1011      C1012   1.413       .  A
C1012      C1018   1.410       .  A
C1012      C1013   1.412       .  A
C1013      C1015   1.410       .  A
C1013      C1014   1.411       .  A
C1014      C1022   1.408       .  A
C1015      C1024   1.398       .  A
C1015      C1016   1.402       .  A
C1016      C1017   1.395       .  A
C1016      H1027   1.084       .  S
C1017      C1018   1.402       .  A
C1017      H1028   1.084       .  S
C1018      C1019   1.397       .  A
C1019      C1020   1.405       .  A
C1019      H1029   1.085       .  S
C1020      C1021   1.406       .  A
C1021      H1030   1.084       .  S
C1022      C1023   1.410       .  A
C1022      H1031   1.083       .  S
C1023      C1024   1.407       .  A
C1024      H1032   1.082       .  S
C1033      C1034   1.396       .  A
C1033      C1038   1.402       .  A
C1033      H1049   1.084       .  S
C1034      C1035   1.403       .  A
C1034      H1050   1.084       .  S
C1035      C1045   1.399       .  A
C1035      C1036   1.411       .  A
C1036      C1042   1.412       .  A
C1036      C1037   1.411       .  A
C1037      C1039   1.412       .  A
C1037      C1038   1.411       .  A
C1038      C1046   1.399       .  A
C1039      C1048   1.406       .  A
C1039      C1040   1.404       .  A
C1040      C1041   1.401       .  A
C1040      H1051   1.083       .  S
C1041      C1042   1.405       .  A
C1041      H1052   1.083       .  S
C1042      C1043   1.407       .  A
C1043      C1044   1.407       .  A
C1043      H1053   1.084       .  S
C1044      C1045   1.405       .  A
C1045      H1054   1.084       .  S
C1046      C1047   1.404       .  A
C1046      H1055   1.084       .  S
C1047      C1048   1.405       .  A
C1048      H1056   1.084       .  S
C1057      C1058   1.400       .  A
C1057      C1062   1.404       .  A
C1057      H1073   1.083       .  S
C1058      C1059   1.404       .  A
C1058      H1074   1.084       .  S
C1059      C1069   1.404       .  A
C1059      C1060   1.411       .  A
C1060      C1066   1.411       .  A
C1060      C1061   1.411       .  A
C1061      C1063   1.410       .  A
C1061      C1062   1.412       .  A
C1062      C1070   1.406       .  A
C1063      C1072   1.399       .  A
C1063      C1064   1.403       .  A
C1064      C1065   1.397       .  A
C1064      H1075   1.084       .  S
C1065      C1066   1.403       .  A
C1065      H1076   1.084       .  S
C1066      C1067   1.400       .  A
C1067      C1068   1.407       .  A
C1067      H1077   1.082       .  S
C1068      C1069   1.407       .  A
C1069      H1078   1.083       .  S
C1070      C1071   1.406       .  A
C1070      H1079   1.084       .  S
C1071      C1072   1.407       .  A
C1072      H1080   1.085       .  S
C1081      C1082   1.399   1_545  A
C1081      C1086   1.403       .  A
C1081      H1097   1.084       .  S
C1082      C1083   1.403       .  A
C1082      H1098   1.083       .  S
C1083      C1093   1.403       .  A
C1083      C1084   1.412       .  A
C1084      C1090   1.411       .  A
C1084      C1085   1.409   1_565  A
C1085      C1087   1.411       .  A
C1085      C1086   1.412       .  A
C1086      C1094   1.402       .  A
C1087      C1096   1.399       .  A
C1087      C1088   1.403       .  A
C1088      C1089   1.397   1_545  A
C1088      H1099   1.084       .  S
C1089      C1090   1.403       .  A
C1089      H1100   1.084       .  S
C1090      C1091   1.399       .  A
C1091      C1092   1.405       .  A
C1091      H1101   1.084       .  S
C1092      C1093   1.404       .  A
C1093      H1102   1.084       .  S
C1094      C1095   1.405       .  A
C1094      H1103   1.084       .  S
C1095      C1096   1.405       .  A
C1096      H1104   1.084       .  S
C1105      C1106   1.398       .  A
C1105      C1110   1.403       .  A
C1105      H1121   1.084       .  S
C1106      C1107   1.403       .  A
C1106      H1122   1.084       .  S
C1107      C1117   1.402       .  A
C1107      C1108   1.410       .  A
C1108      C1114   1.410       .  A
C1108      C1109   1.412       .  A
C1109      C1111   1.410       .  A
C1109      C1110   1.410       .  A
C1110      C1118   1.402       .  A
C1111      C1120   1.403       .  A
C1111      C1112   1.404       .  A
C1112      C1113   1.399       .  A
C1112      H1123   1.084       .  S
C1113      C1114   1.404       .  A
C1113      H1124   1.084       .  S
C1114      C1115   1.403       .  A
C1115      C1116   1.409       .  A
C1115      H1125   1.082       .  S
C1116      C1117   1.409       .  A
C1117      H1126   1.082       .  S
C1118      C1119   1.408       .  A
C1118      H1127   1.082       .  S
C1119      C1120   1.409       .  A
C1120      H1128   1.082       .  S
C1129      C1130   1.401       .  A
C1129      C1134   1.404       .  A
C1129      H1145   1.083       .  S
C1130      C1131   1.405       .  A
C1130      H1146   1.083       .  S
C1131      C1141   1.406       .  A
C1131      C1132   1.411       .  A
C1132      C1138   1.410       .  A
C1132      C1133   1.412       .  A
C1133      C1135   1.410       .  A
C1133      C1134   1.413       .  A
C1134      C1142   1.407       .  A
C1135      C1144   1.398       .  A
C1135      C1136   1.403       .  A
C1136      C1137   1.397       .  A
C1136      H1147   1.084       .  S
C1137      C1138   1.403       .  A
C1137      H1148   1.084       .  S
C1138      C1139   1.400       .  A
C1139      C1140   1.408       .  A
C1139      H1149   1.082       .  S
C1140      C1141   1.409       .  A
C1141      H1150   1.083       .  S
C1142      C1143   1.406       .  A
C1142      H1151   1.084       .  S
C1143      C1144   1.407       .  A
C1144      H1152   1.085       .  S
C1153      C1154   1.401       .  A
C1153      C1158   1.404       .  A
C1153      H1169   1.083       .  S
C1154      C1155   1.405       .  A
C1154      H1170   1.083       .  S
C1155      C1165   1.407       .  A
C1155      C1156   1.410       .  A
C1156      C1162   1.410       .  A
C1156      C1157   1.413       .  A
C1157      C1159   1.411       .  A
C1157      C1158   1.413       .  A
C1158      C1166   1.408       .  A
C1159      C1168   1.399       .  A
C1159      C1160   1.403       .  A
C1160      C1161   1.397       .  A
C1160      H1171   1.084       .  S
C1161      C1162   1.403       .  A
C1161      H1172   1.084       .  S
C1162      C1163   1.401       .  A
C1163      C1164   1.409       .  A
C1163      H1173   1.081       .  S
C1164      C1165   1.410       .  A
C1165      H1174   1.082       .  S
C1166      C1167   1.406       .  A
C1166      H1175   1.084       .  S
C1167      C1168   1.406       .  A
C1168      H1176   1.085       .  S
C1177      C1178   1.398       .  A
C1177      C1182   1.403       .  A
C1177      H1193   1.084       .  S
C1178      C1179   1.403       .  A
C1178      H1194   1.084       .  S
C1179      C1189   1.403       .  A
C1179      C1180   1.410       .  A
C1180      C1186   1.411       .  A
C1180      C1181   1.413       .  A
C1181      C1183   1.410       .  A
C1181      C1182   1.411       .  A
C1182      C1190   1.403       .  A
C1183      C1192   1.404       .  A
C1183      C1184   1.404       .  A
C1184      C1185   1.400       .  A
C1184      H1195   1.084       .  S
C1185      C1186   1.404       .  A
C1185      H1196   1.083       .  S
C1186      C1187   1.405       .  A
C1187      C1188   1.410       .  A
C1187      H1197   1.082       .  S
C1188      C1189   1.409       .  A
C1189      H1198   1.082       .  S
C1190      C1191   1.408       .  A
C1190      H1199   1.082       .  S
C1191      C1192   1.410       .  A
C1192      H1200   1.082       .  S
C1201      C1202   1.396       .  A
C1201      C1206   1.402       .  A
C1201      H1217   1.084       .  S
C1202      C1203   1.403       .  A
C1202      H1218   1.084       .  S
C1203      C1213   1.399       .  A
C1203      C1204   1.410       .  A
C1204      C1210   1.411       .  A
C1204      C1205   1.413       .  A
C1205      C1207   1.413       .  A
C1205      C1206   1.411       .  A
C1206      C1214   1.399       .  A
C1207      C1216   1.408       .  A
C1207      C1208   1.405       .  A
C1208      C1209   1.402       .  A
C1208      H1219   1.083       .  S
C1209      C1210   1.405       .  A
C1209      H1220   1.083       .  S
C1210      C1211   1.408       .  A
C1211      C1212   1.409       .  A
C1211      H1221   1.083       .  S
C1212      C1213   1.408       .  A
C1213      H1222   1.082       .  S
C1214      C1215   1.404       .  A
C1214      H1223   1.085       .  S
C1215      C1216   1.406       .  A
C1216      H1224   1.084       .  S
C1225      C1226   1.399       .  A
C1225      C1230   1.404       .  A
C1225      H1241   1.084       .  S
C1226      C1227   1.403       .  A
C1226      H1242   1.083       .  S
C1227      C1237   1.404       .  A
C1227      C1228   1.413       .  A
C1228      C1234   1.411       .  A
C1228      C1229   1.410       .  A
C1229      C1231   1.412       .  A
C1229      C1230   1.411       .  A
C1230      C1238   1.402       .  A
C1231      C1240   1.400       .  A
C1231      C1232   1.403       .  A
C1232      C1233   1.397       .  A
C1232      H1243   1.084       .  S
C1233      C1234   1.403       .  A
C1233      H1244   1.084       .  S
C1234      C1235   1.398       .  A
C1235      C1236   1.405       .  A
C1235      H1245   1.084       .  S
C1236      C1237   1.404       .  A
C1237      H1246   1.084       .  S
C1238      C1239   1.406       .  A
C1238      H1247   1.084       .  S
C1239      C1240   1.405       .  A
C1240      H1248   1.084       .  S
C1249      C1250   1.400       .  A
C1249      C1254   1.404       .  A
C1249      H1265   1.084       .  S
C1250      C1251   1.404       .  A
C1250      H1266   1.084       .  S
C1251      C1261   1.404       .  A
C1251      C1252   1.412       .  A
C1252      C1258   1.411       .  A
C1252      C1253   1.410       .  A
C1253      C1255   1.412       .  A
C1253      C1254   1.412       .  A
C1254      C1262   1.403       .  A
C1255      C1264   1.399       .  A
C1255      C1256   1.402       .  A
C1256      C1257   1.397       .  A
C1256      H1267   1.084       .  S
C1257      C1258   1.402       .  A
C1257      H1268   1.084       .  S
C1258      C1259   1.399       .  A
C1259      C1260   1.403       .  A
C1259      H1269   1.084       .  S
C1260      C1261   1.406       .  A
C1261      H1270   1.084       .  S
C1262      C1263   1.405       .  A
C1262      H1271   1.084       .  S
C1263      C1264   1.402       .  A
C1264      H1272   1.085       .  S
C1273      C1274   1.400   1_565  A
C1273      C1278   1.404       .  A
C1273      H1289   1.083       .  S
C1274      C1275   1.404       .  A
C1274      H1290   1.083       .  S
C1275      C1285   1.403       .  A
C1275      C1276   1.411       .  A
C1276      C1282   1.412       .  A
C1276      C1277   1.412   1_545  A
C1277      C1279   1.411       .  A
C1277      C1278   1.412       .  A
C1278      C1286   1.405       .  A
C1279      C1288   1.402       .  A
C1279      C1280   1.404       .  A
C1280      C1281   1.399   1_565  A
C1280      H1291   1.084       .  S
C1281      C1282   1.404       .  A
C1281      H1292   1.084       .  S
C1282      C1283   1.403       .  A
C1283      C1284   1.407       .  A
C1283      H1293   1.084       .  S
C1284      C1285   1.406       .  A
C1285      H1294   1.084       .  S
C1286      C1287   1.406       .  A
C1286      H1295   1.084       .  S
C1287      C1288   1.406       .  A
C1288      H1296   1.084       .  S
C1297      C1298   1.400       .  A
C1297      C1302   1.404       .  A
C1297      H1313   1.083       .  S
C1298      C1299   1.404       .  A
C1298      H1314   1.083       .  S
C1299      C1309   1.404       .  A
C1299      C1300   1.410       .  A
C1300      C1306   1.410       .  A
C1300      C1301   1.412       .  A
C1301      C1303   1.410       .  A
C1301      C1302   1.411       .  A
C1302      C1310   1.404       .  A
C1303      C1312   1.401       .  A
C1303      C1304   1.403       .  A
C1304      C1305   1.398       .  A
C1304      H1315   1.084       .  S
C1305      C1306   1.403       .  A
C1305      H1316   1.084       .  S
C1306      C1307   1.402       .  A
C1307      C1308   1.409       .  A
C1307      H1317   1.082       .  S
C1308      C1309   1.409       .  A
C1309      H1318   1.082       .  S
C1310      C1311   1.409       .  A
C1310      H1319   1.082       .  S
C1311      C1312   1.409       .  A
C1312      H1320   1.082       .  S
