geometry optimzed in LAMMPS
_audit_creation_date              2020-11-30 
_audit_creation_method            'lammps2cif' 
_symmetry_space_group_name_H-M    'P1' 
_symmetry_Int_Tables_number       1 
_symmetry_cell_setting            triclinic 
loop_ 
_symmetry_equiv_pos_as_xyz 
  x,y,z 
_cell_length_a                    68.67911414257978 
_cell_length_b                    68.65848005446173 
_cell_length_c                    68.47963461473158 
_cell_angle_alpha                 90.05898345687753 
_cell_angle_beta                  89.92676812999842 
_cell_angle_gamma                 90.03153726544286 
loop_ 
_atom_site_label 
_atom_site_type_symbol 
_atom_site_fract_x 
_atom_site_fract_y 
_atom_site_fract_z 
_atom_site_charge 
C1          C  0.31995049  0.34426744  0.34588842     0.03530
C2          C  0.32945332  0.32861876  0.35500911    -0.12620
C3          C  0.34626501  0.32038376  0.34673024     0.01030
C4          C  0.35373232  0.32814639  0.32930365    -0.11140
C5          C  0.34474837  0.34413681  0.32028940     0.03520
C6          C  0.32766635  0.35188334  0.32850031    -0.10570
H7          H  0.32388502  0.32293916  0.36867905     0.09120
H8          H  0.36661990  0.32177219  0.32276991     0.06650
H9          H  0.32025474  0.36378851  0.32127072     0.06490
C10         C  0.14697117  0.31966034  0.14513211     0.03530
C11         C  0.13772406  0.32880262  0.16096742    -0.12620
C12         C  0.14594343  0.34530302  0.16979912     0.01030
C13         C  0.16328403  0.35305169  0.16228518    -0.11140
C14         C  0.17256454  0.34429607  0.14626003     0.03520
C15         C  0.16457569  0.32734694  0.13802169    -0.10570
H16         H  0.12403882  0.32308945  0.16640383     0.09120
H17         H  0.16972067  0.36577310  0.16909514     0.06650
H18         H  0.17199753  0.32025274  0.12599306     0.06490
C19         C  0.34442581  0.17092514  0.14780683     0.03530
C20         C  0.35250668  0.16297203  0.16483557    -0.12620
C21         C  0.34413470  0.14650557  0.17350953     0.01030
C22         C  0.32755261  0.13800988  0.16521503    -0.11140
C23         C  0.31885856  0.14627961  0.14862857     0.03520
C24         C  0.32747254  0.16268139  0.13993499    -0.10570
H25         H  0.36545944  0.16940743  0.17117555     0.09120
H26         H  0.32141342  0.12500741  0.17174162     0.06650
H27         H  0.32082032  0.16922552  0.12718584     0.06490
C28         C  0.14571971  0.16945745  0.34786498     0.03530
C29         C  0.16335446  0.16191741  0.35507579    -0.12620
C30         C  0.17234412  0.14588928  0.34595252     0.01030
C31         C  0.16418117  0.13827547  0.32880381    -0.11140
C32         C  0.14655971  0.14545486  0.32152832     0.03520
C33         C  0.13720313  0.16072439  0.33137433    -0.10570
H34         H  0.17016086  0.16854965  0.36768985     0.09120
H35         H  0.17161362  0.12672170  0.32099884     0.06650
H36         H  0.12331441  0.16598059  0.32605768     0.06490
C37         C  0.17329835  0.64607034  0.14768193     0.03530
C38         C  0.16517861  0.63833160  0.16483998    -0.12620
C39         C  0.14848892  0.64666051  0.17309078     0.01030
C40         C  0.14021619  0.66323415  0.16465543    -0.11140
C41         C  0.14857757  0.67163230  0.14799805     0.03520
C42         C  0.16494881  0.66284366  0.13937947    -0.10570
H43         H  0.17176022  0.62577034  0.17176002     0.09120
H44         H  0.12731675  0.66965764  0.17113962     0.06650
H45         H  0.17122550  0.66911776  0.12628887     0.06490
C46         C  0.67341748  0.14539827  0.14685914     0.03530
C47         C  0.66530489  0.16205016  0.13820280    -0.12620
C48         C  0.64827462  0.17048242  0.14585351     0.01030
C49         C  0.63945608  0.16205067  0.16231987    -0.11140
C50         C  0.64755622  0.14553053  0.17124411     0.03520
C51         C  0.66440891  0.13711559  0.16325591    -0.10570
H52         H  0.67201964  0.16814691  0.12524811     0.09120
H53         H  0.62623101  0.16836418  0.16820929     0.06650
H54         H  0.67069290  0.12428522  0.16996467     0.06490
C55         C  0.17159301  0.84586751  0.34578469     0.03530
C56         C  0.16303194  0.82918253  0.35404549    -0.12620
C57         C  0.14708373  0.82010728  0.34506789     0.01030
C58         C  0.13918882  0.82820273  0.32808081    -0.11140
C59         C  0.14731578  0.84503100  0.31984600     0.03520
C60         C  0.16377472  0.85354259  0.32847713    -0.10570
H61         H  0.16898784  0.82302848  0.36732670     0.09120
H62         H  0.12667858  0.82139820  0.32125700     0.06650
H63         H  0.17048320  0.86610178  0.32166011     0.06490
C64         C  0.67163800  0.34540246  0.34668862     0.03530
C65         C  0.66288347  0.32876302  0.35477156    -0.12620
C66         C  0.64572585  0.32103539  0.34674232     0.01030
C67         C  0.63724871  0.33026663  0.33055076    -0.11140
C68         C  0.64605611  0.34664548  0.32198817     0.03520
C69         C  0.66338503  0.35396455  0.33002953    -0.10570
H70         H  0.66959487  0.32163796  0.36716706     0.09120
H71         H  0.62369827  0.32474704  0.32463225     0.06650
H72         H  0.67047424  0.36638712  0.32334648     0.06490
C73         C  0.31919244  0.34431777  0.64829151     0.03530
C74         C  0.32783572  0.32773334  0.63997464    -0.12620
C75         C  0.34476724  0.31967064  0.64807400     0.01030
C76         C  0.35312183  0.32846167  0.66457181    -0.11140
C77         C  0.34443156  0.34477982  0.67333758     0.03520
C78         C  0.32746490  0.35268192  0.66507035    -0.10570
H79         H  0.32124460  0.32097062  0.62729029     0.09120
H80         H  0.36640123  0.32252948  0.67068308     0.06650
H81         H  0.32093196  0.36558477  0.67142092     0.06490
C82         C  0.34505886  0.64732017  0.31933797     0.03530
C83         C  0.35323373  0.66421968  0.32738855    -0.12620
C84         C  0.34509540  0.67279142  0.34413547     0.01030
C85         C  0.32882518  0.66397395  0.35296705    -0.11140
C86         C  0.32059230  0.64691590  0.34510871     0.03520
C87         C  0.32870807  0.63883431  0.32810734    -0.10570
H88         H  0.36617086  0.67044572  0.32080333     0.09120
H89         H  0.32260184  0.67036829  0.36603368     0.06650
H90         H  0.32221826  0.62602671  0.32152751     0.06490
C91         C  0.84196011  0.14913191  0.31822951     0.03530
C92         C  0.85009426  0.16568660  0.32707757    -0.12620
C93         C  0.84222425  0.17332834  0.34441355     0.01030
C94         C  0.82591243  0.16421840  0.35282721    -0.11140
C95         C  0.81764723  0.14764548  0.34407137     0.03520
C96         C  0.82587338  0.14004845  0.32695940    -0.10570
H97         H  0.86262344  0.17265418  0.32043538     0.09120
H98         H  0.81995117  0.16964981  0.36643824     0.06650
H99         H  0.81977270  0.12698909  0.32049272     0.06490
C100        C  0.14876529  0.17256861  0.64873450     0.03530
C101        C  0.14120891  0.16462935  0.66604692    -0.12620
C102        C  0.14905927  0.14747091  0.67378207     0.01030
C103        C  0.16459454  0.13823945  0.66431341    -0.11140
C104        C  0.17211503  0.14585279  0.64686741     0.03520
C105        C  0.16405439  0.16295551  0.63911442    -0.10570
H106        H  0.12920642  0.17173831  0.67346980     0.09120
H107        H  0.17086688  0.12520615  0.67062224     0.06650
H108        H  0.16961763  0.16870534  0.62546863     0.06490
C109        C  0.34529490  0.84226460  0.17312764     0.03530
C110        C  0.35344971  0.82573398  0.16429200    -0.12620
C111        C  0.34511281  0.81769551  0.14739893     0.01030
C112        C  0.32858533  0.82656307  0.13926656    -0.11140
C113        C  0.32005230  0.84284052  0.14823256     0.03520
C114        C  0.32864516  0.85079531  0.16499675    -0.10570
H115        H  0.36635114  0.81916175  0.17055741     0.09120
H116        H  0.32226194  0.82075655  0.12599190     0.06650
H117        H  0.32236914  0.86363541  0.17173628     0.06490
C118        C  0.34695948  0.16970493  0.84811977     0.03530
C119        C  0.35505652  0.16163462  0.83113514    -0.12620
C120        C  0.34605390  0.14595227  0.82166472     0.01030
C121        C  0.32898734  0.13796716  0.82960972    -0.11140
C122        C  0.32071217  0.14577734  0.84668050     0.03520
C123        C  0.32984486  0.16163580  0.85591075    -0.10570
H124        H  0.36842797  0.16764066  0.82524514     0.09120
H125        H  0.32194244  0.12586570  0.82229022     0.06650
H126        H  0.32351793  0.16784279  0.86900690     0.06490
C127        C  0.14546796  0.32222548  0.84675025     0.03530
C128        C  0.16289201  0.32972297  0.85442520    -0.12620
C129        C  0.17212938  0.34573835  0.84563806     0.01030
C130        C  0.16373810  0.35427183  0.82903448    -0.11140
C131        C  0.14635701  0.34688499  0.82130045     0.03520
C132        C  0.13728322  0.33088701  0.83014688    -0.10570
H133        H  0.16933761  0.32299556  0.86718774     0.09120
H134        H  0.17056248  0.36680591  0.82226915     0.06650
H135        H  0.12408343  0.32494513  0.82384022     0.06490
C136        C  0.84926637  0.31979095  0.14509735     0.03530
C137        C  0.85731421  0.32832495  0.16183563    -0.12620
C138        C  0.84879536  0.34490920  0.17023322     0.01030
C139        C  0.83238697  0.35325099  0.16132315    -0.11140
C140        C  0.82404021  0.34482926  0.14454841     0.03520
C141        C  0.83250779  0.32790148  0.13668057    -0.10570
H142        H  0.87027424  0.32205011  0.16828512     0.09120
H143        H  0.82592528  0.36619218  0.16766838     0.06650
H144        H  0.82583000  0.32067896  0.12431498     0.06490
C145        C  0.67387977  0.14580792  0.84364198     0.03530
C146        C  0.66561483  0.16266526  0.85189203    -0.12620
C147        C  0.64867746  0.17094761  0.84401199     0.01030
C148        C  0.63985485  0.16221797  0.82775482    -0.11140
C149        C  0.64795900  0.14551371  0.81924883     0.03520
C150        C  0.66485412  0.13727052  0.82730829    -0.10570
H151        H  0.67240135  0.16942770  0.86447210     0.09120
H152        H  0.62662499  0.16837587  0.82175187     0.06650
H153        H  0.67064500  0.12395604  0.82110382     0.06490
C154        C  0.14799900  0.64716282  0.82002559     0.03530
C155        C  0.16413490  0.63847864  0.82904896    -0.12620
C156        C  0.17198152  0.64646352  0.84621084     0.01030
C157        C  0.16349205  0.66318182  0.85434320    -0.11140
C158        C  0.14715098  0.67176342  0.84561121     0.03520
C159        C  0.13963670  0.66384183  0.82830741    -0.10570
H160        H  0.17056049  0.62550009  0.82273092     0.09120
H161        H  0.16955992  0.66948229  0.86751980     0.06650
H162        H  0.12711520  0.67051107  0.82139874     0.06490
C163        C  0.64775234  0.67163514  0.34559425     0.03530
C164        C  0.66374396  0.66246271  0.35442151    -0.12620
C165        C  0.67204905  0.64568871  0.34613812     0.01030
C166        C  0.66423910  0.63816453  0.32873630    -0.11140
C167        C  0.64806273  0.64699387  0.31988603     0.03520
C168        C  0.63994941  0.66376724  0.32836526    -0.10570
H169        H  0.66978808  0.66844836  0.36774467     0.09120
H170        H  0.67053158  0.62520098  0.32225784     0.06650
H171        H  0.62771423  0.67087749  0.32138706     0.06490
C172        C  0.67227193  0.34566753  0.64659232     0.03530
C173        C  0.66337728  0.35388137  0.66313748    -0.12620
C174        C  0.64679411  0.34527799  0.67140991     0.01030
C175        C  0.63884383  0.32850068  0.66286139    -0.11140
C176        C  0.64734548  0.32026205  0.64612991     0.03520
C177        C  0.66422373  0.32878559  0.63825524    -0.10570
H178        H  0.66918810  0.36712949  0.66947733     0.09120
H179        H  0.62598322  0.32189265  0.66922567     0.06650
H180        H  0.67123620  0.32217218  0.62571282     0.06490
C181        C  0.17459029  0.84376447  0.64743653     0.03530
C182        C  0.16645394  0.85197190  0.66433492    -0.12620
C183        C  0.15032957  0.84330386  0.67330156     0.01030
C184        C  0.14227934  0.82629926  0.66543162    -0.11140
C185        C  0.15019865  0.81793456  0.64848307     0.03520
C186        C  0.16643921  0.82669017  0.63961012    -0.10570
H187        H  0.17252447  0.86523654  0.67040864     0.09120
H188        H  0.12966789  0.81975132  0.67234389     0.06650
H189        H  0.17256308  0.82038089  0.62646273     0.06490
C190        C  0.67389682  0.84432302  0.14673547     0.03530
C191        C  0.66557653  0.85214660  0.16369819    -0.12620
C192        C  0.64921166  0.84334357  0.17216633     0.01030
C193        C  0.64106266  0.82673971  0.16345699    -0.11140
C194        C  0.64917273  0.81879861  0.14636355     0.03520
C195        C  0.66575453  0.82762941  0.13816289    -0.10570
H196        H  0.67190188  0.86500235  0.17036226     0.09120
H197        H  0.62824216  0.82013082  0.16990480     0.06650
H198        H  0.67252334  0.82139785  0.12529497     0.06490
C199        C  0.64838272  0.67054275  0.64484476     0.03530
C200        C  0.66477556  0.66155614  0.63645564    -0.12620
C201        C  0.67360556  0.64550227  0.64558339     0.01030
C202        C  0.66614270  0.63861456  0.66335971    -0.11140
C203        C  0.64977935  0.64738016  0.67187625     0.03520
C204        C  0.64090466  0.66322692  0.66250878    -0.10570
H205        H  0.67101520  0.66735136  0.62313155     0.09120
H206        H  0.67286734  0.62618467  0.67039003     0.06650
H207        H  0.62821560  0.66997070  0.66907698     0.06490
C208        C  0.84427176  0.14706339  0.67398967     0.03530
C209        C  0.85251688  0.16381207  0.66558820    -0.12620
C210        C  0.84455113  0.17197724  0.64862671     0.01030
C211        C  0.82832737  0.16317702  0.63986150    -0.11140
C212        C  0.82013329  0.14624325  0.64786631     0.03520
C213        C  0.82817485  0.13825793  0.66490664    -0.10570
H214        H  0.86498056  0.17070071  0.67241486     0.09120
H215        H  0.82209941  0.16950369  0.62679016     0.06650
H216        H  0.82204472  0.12500574  0.67091313     0.06490
C217        C  0.34542053  0.64793421  0.67490016     0.03530
C218        C  0.35392052  0.66437434  0.66614115    -0.12620
C219        C  0.34587371  0.67249943  0.64914695     0.01030
C220        C  0.32906398  0.66413268  0.64108918    -0.11140
C221        C  0.32059665  0.64754935  0.64947836     0.03520
C222        C  0.32892256  0.63942174  0.66629466    -0.10570
H223        H  0.36699636  0.67065209  0.67237075     0.09120
H224        H  0.32257893  0.67047674  0.62816142     0.06650
H225        H  0.32235162  0.62665703  0.67288079     0.06490
C226        C  0.82026857  0.64769075  0.14860351     0.03530
C227        C  0.82797809  0.63966650  0.16573378    -0.12620
C228        C  0.84441032  0.64804049  0.17458536     0.01030
C229        C  0.85307965  0.66450464  0.16607776    -0.11140
C230        C  0.84562454  0.67246468  0.14874533     0.03520
C231        C  0.82913411  0.66397953  0.14012646    -0.10570
H232        H  0.82115550  0.62696794  0.17219070     0.09120
H233        H  0.86572151  0.67104053  0.17290147     0.06650
H234        H  0.82318302  0.67002682  0.12679093     0.06490
C235        C  0.67532021  0.84289959  0.84351500     0.03530
C236        C  0.66640248  0.85154775  0.82721107    -0.12620
C237        C  0.64898803  0.84395357  0.81951848     0.01030
C238        C  0.64065316  0.82738866  0.82822198    -0.11140
C239        C  0.64930163  0.81877562  0.84460351     0.03520
C240        C  0.66660629  0.82650046  0.85211037    -0.10570
H241        H  0.67290843  0.86431742  0.82061890     0.09120
H242        H  0.62720876  0.82140338  0.82250412     0.06650
H243        H  0.67332698  0.81965324  0.86466480     0.06490
C244        C  0.84463417  0.31780213  0.84523358     0.03530
C245        C  0.85390038  0.32670243  0.82928496    -0.12620
C246        C  0.84592014  0.34334595  0.82046980     0.01030
C247        C  0.82881262  0.35146671  0.82824979    -0.11140
C248        C  0.81929231  0.34274360  0.84415691     0.03520
C249        C  0.82721949  0.32579288  0.85244586    -0.10570
H250        H  0.86753090  0.32080374  0.82393005     0.09120
H251        H  0.82293038  0.36466791  0.82193181     0.06650
H252        H  0.81978702  0.31879318  0.86451671     0.06490
C253        C  0.58922537  0.26411870  0.88075473     0.03530
C254        C  0.59661544  0.24639356  0.87352343    -0.12620
C255        C  0.61339877  0.23794878  0.88153272     0.01030
C256        C  0.62253478  0.24694315  0.89750177    -0.11140
C257        C  0.61528493  0.26450792  0.90517043     0.03520
C258        C  0.59900581  0.27323210  0.89633470    -0.10570
H259        H  0.58944550  0.23914781  0.86144607     0.09120
H260        H  0.63569813  0.24063874  0.90348415     0.06650
H261        H  0.59412908  0.28729459  0.90153965     0.06490
C262        C  0.26829312  0.61271101  0.90218491     0.03530
C263        C  0.25096046  0.62074924  0.89496699    -0.12620
C264        C  0.24092084  0.61169531  0.87969319     0.01030
C265        C  0.24786592  0.59410964  0.87194821    -0.11140
C266        C  0.26572638  0.58620822  0.87814470     0.03520
C267        C  0.27569657  0.59565001  0.89351187    -0.10570
H268        H  0.24540321  0.63423541  0.90103912     0.09120
H269        H  0.23912349  0.58669348  0.86113186     0.06650
H270        H  0.28924675  0.58970577  0.89888747     0.06490
C271        C  0.40400535  0.26746266  0.87798951     0.03530
C272        C  0.39667892  0.24993771  0.87042076    -0.12620
C273        C  0.38066752  0.24071410  0.87924056     0.01030
C274        C  0.37234808  0.24901955  0.89602963    -0.11140
C275        C  0.37906901  0.26692327  0.90340079     0.03520
C276        C  0.39510089  0.27594358  0.89433399    -0.10570
H277        H  0.40363204  0.24337178  0.85781843     0.09120
H278        H  0.36044148  0.24157086  0.90323110     0.06650
H279        H  0.40051892  0.28975012  0.89975780     0.06490
C280        C  0.26802135  0.37669919  0.90458394     0.03530
C281        C  0.25055639  0.36940143  0.89677886    -0.12620
C282        C  0.24211277  0.37798555  0.88021846     0.01030
C283        C  0.25123301  0.39409533  0.87153046    -0.11140
C284        C  0.26833386  0.40186812  0.87954701     0.03520
C285        C  0.27667075  0.39311836  0.89601059    -0.10570
H286        H  0.24364005  0.35687399  0.90344605     0.09120
H287        H  0.24488154  0.40076575  0.85869051     0.06650
H288        H  0.29020998  0.39880321  0.90181490     0.06490
C289        C  0.40347843  0.26585166  0.11629777     0.03530
C290        C  0.39658331  0.24739479  0.12199683    -0.12620
C291        C  0.37950813  0.23962029  0.11392721     0.01030
C292        C  0.37039528  0.24919508  0.09842254    -0.11140
C293        C  0.37714873  0.26742009  0.09207497     0.03520
C294        C  0.39330180  0.27584400  0.10148735    -0.10570
H295        H  0.40434173  0.23882919  0.13268281     0.09120
H296        H  0.35794745  0.24244634  0.09146451     0.06650
H297        H  0.39789924  0.29030380  0.09718243     0.06490
C298        C  0.26886534  0.37742071  0.08960814     0.03530
C299        C  0.25221625  0.36893441  0.09791967    -0.12620
C300        C  0.24346208  0.37722094  0.11449097     0.01030
C301        C  0.25147052  0.39414199  0.12274603    -0.11140
C302        C  0.26792300  0.40297478  0.11438032     0.03520
C303        C  0.27633115  0.39466205  0.09766506    -0.10570
H304        H  0.24612562  0.35581680  0.09156833     0.09120
H305        H  0.24509066  0.40017659  0.13590591     0.06650
H306        H  0.28885049  0.40159509  0.09097626     0.06490
O307        O  0.35005078  0.32009273  0.01702396    -0.74020
O308        O  0.32209432  0.34772485  0.97725749    -0.74060
O309        O  0.32229046  0.34771263  0.01696274    -0.74110
O310        O  0.35010158  0.31998729  0.97723880    -0.74160
O311        O  0.32741405  0.29674759  0.97768230    -0.74090
O312        O  0.29883905  0.32520338  0.01634549    -0.74070
O313        O  0.29965314  0.32421424  0.97676212    -0.74050
O314        O  0.32664155  0.29759269  0.01759603    -0.74110
Ni315      Ni  0.33696595  0.33469987  0.99709179     1.25410
Ni316      Ni  0.31235540  0.31009348  0.99710567     1.25360
C317        C  0.34257691  0.30461780  0.02432548     0.88150
C318        C  0.30644070  0.34031508  0.97026412     0.88090
C319        C  0.30610844  0.34092061  0.02330250     0.88110
C320        C  0.34315978  0.30395066  0.97067065     0.88290
C321        C  0.61681303  0.58841652  0.22392390     0.03530
C322        C  0.62492789  0.59704619  0.24056908    -0.12620
C323        C  0.61675648  0.61404711  0.24848100     0.01030
C324        C  0.60035063  0.62236401  0.23952607    -0.11140
C325        C  0.59176325  0.61369185  0.22297754     0.03520
C326        C  0.59995616  0.59639559  0.21559945    -0.10570
H327        H  0.63764705  0.59057001  0.24729293     0.09120
H328        H  0.59442799  0.63576356  0.24541578     0.06650
H329        H  0.59323889  0.58891354  0.20342858     0.06490
C330        C  0.58936628  0.37980668  0.22498602     0.03530
C331        C  0.59618248  0.37277059  0.24302548    -0.12620
C332        C  0.61336696  0.38005793  0.25137134     0.01030
C333        C  0.62300409  0.39562758  0.24228342    -0.11140
C334        C  0.61607758  0.40328234  0.22462120     0.03520
C335        C  0.59976257  0.39481491  0.21568446    -0.10570
H336        H  0.58822430  0.36139129  0.25054217     0.09120
H337        H  0.63613868  0.40155567  0.24873528     0.06650
H338        H  0.59522385  0.40001121  0.20148303     0.06490
C339        C  0.40356159  0.37763986  0.22424460     0.03530
C340        C  0.39555762  0.36901253  0.24106840    -0.12620
C341        C  0.37844549  0.37647110  0.24956551     0.01030
C342        C  0.36950516  0.39281664  0.24115130    -0.11140
C343        C  0.37765912  0.40184742  0.22475861     0.03520
C344        C  0.39479774  0.39444484  0.21654818    -0.10570
H345        H  0.40259577  0.35643423  0.24746536     0.09120
H346        H  0.35618317  0.39858600  0.24738525     0.06650
H347        H  0.40110949  0.40161363  0.20394691     0.06490
C348        C  0.37800510  0.58887138  0.22481523     0.03530
C349        C  0.37171064  0.59557454  0.24313287    -0.12620
C350        C  0.38063763  0.61165390  0.25190321     0.01030
C351        C  0.39692904  0.62021145  0.24311154    -0.11140
C352        C  0.40397678  0.61333088  0.22509489     0.03520
C353        C  0.39389711  0.59812110  0.21572828    -0.10570
H354        H  0.35963202  0.58855620  0.25048953     0.09120
H355        H  0.40407311  0.63225523  0.25041523     0.06650
H356        H  0.39827765  0.59353788  0.20124419     0.06490
O357        O  0.29889264  0.51502640  0.16665831    -0.74020
O358        O  0.32517324  0.47532040  0.19562435    -0.74060
O359        O  0.32585586  0.51514371  0.19513247    -0.74110
O360        O  0.29829339  0.47553560  0.16700311    -0.74160
O361        O  0.32222947  0.47477650  0.14494088    -0.74090
O362        O  0.34951070  0.51453489  0.17281125    -0.74070
O363        O  0.34911479  0.47504136  0.17352524    -0.74050
O364        O  0.32261502  0.51456064  0.14437553    -0.74110
Ni365      Ni  0.31122914  0.49527672  0.18193097     1.25410
Ni366      Ni  0.33668900  0.49469544  0.15809652     1.25360
C367        C  0.30666901  0.52166444  0.15102421     0.88150
C368        C  0.34124991  0.46843478  0.18912973     0.88090
C369        C  0.34200192  0.52168108  0.18834701     0.88110
C370        C  0.30602460  0.46831931  0.15158896     0.88290
O371        O  0.47730690  0.29798979  0.16723597    -0.74020
O372        O  0.51681278  0.32575533  0.19480346    -0.74060
O373        O  0.47734931  0.32611576  0.19482333    -0.74110
O374        O  0.51687287  0.29779146  0.16732994    -0.74160
O375        O  0.51711543  0.32046874  0.14406418    -0.74090
O376        O  0.47713767  0.34848975  0.17121952    -0.74070
O377        O  0.51689497  0.34863518  0.17174695    -0.74050
O378        O  0.47754091  0.32035173  0.14371183    -0.74110
Ni379      Ni  0.49705945  0.31111757  0.18185874     1.25410
Ni380      Ni  0.49719266  0.33532524  0.15686307     1.25360
C381        C  0.47069385  0.30460896  0.15105882     0.88150
C382        C  0.52373316  0.34150474  0.18763403     0.88090
C383        C  0.47050750  0.34177871  0.18736201     0.88110
C384        C  0.52369717  0.30458099  0.15129417     0.88290
C385        C  0.58912471  0.72527880  0.87779400     0.03530
C386        C  0.59734834  0.74266983  0.87070204    -0.12620
C387        C  0.61406447  0.75062409  0.87933868     0.01030
C388        C  0.62201596  0.74181256  0.89594040    -0.11140
C389        C  0.61375965  0.72473732  0.90363164     0.03520
C390        C  0.59751907  0.71642744  0.89432775    -0.10570
H391        H  0.59081421  0.75015261  0.85844459     0.09120
H392        H  0.63486097  0.74806865  0.90266670     0.06650
H393        H  0.59174618  0.70275402  0.89969745     0.06490
C394        C  0.58809938  0.37823013  0.76655699     0.03530
C395        C  0.59634158  0.37021550  0.74964560    -0.12620
C396        C  0.61342774  0.37811244  0.74171408     0.01030
C397        C  0.62210879  0.39433250  0.75067952    -0.11140
C398        C  0.61360166  0.40305946  0.76721036     0.03520
C399        C  0.59661920  0.39471172  0.77514137    -0.10570
H400        H  0.58984445  0.35740956  0.74305152     0.09120
H401        H  0.63558953  0.40002984  0.74478388     0.06650
H402        H  0.58996510  0.40097343  0.78805552     0.06490
C403        C  0.40758636  0.37866165  0.76597824     0.03530
C404        C  0.39886162  0.37065991  0.74920934    -0.12620
C405        C  0.38163186  0.37855097  0.74154663     0.01030
C406        C  0.37295912  0.39449867  0.75095338    -0.11140
C407        C  0.38179685  0.40328192  0.76724182     0.03520
C408        C  0.39896579  0.39503303  0.77478401    -0.10570
H409        H  0.40529178  0.35800798  0.74228467     0.09120
H410        H  0.35922375  0.40000161  0.74553714     0.06650
H411        H  0.40540534  0.40113385  0.78783922     0.06490
C412        C  0.37776796  0.58701774  0.76890728     0.03530
C413        C  0.36964869  0.59588054  0.75244033    -0.12620
C414        C  0.37833377  0.61249614  0.74428761     0.01030
C415        C  0.39476801  0.62068125  0.75337823    -0.11140
C416        C  0.40335517  0.61174567  0.76979483     0.03520
C417        C  0.39498083  0.59446856  0.77696503    -0.10570
H418        H  0.35641396  0.59000404  0.74614819     0.09120
H419        H  0.40091878  0.63396172  0.74748138     0.06650
H420        H  0.40174910  0.58661629  0.78883973     0.06490
O421        O  0.29994630  0.47285374  0.82608996    -0.74020
O422        O  0.32641424  0.51351905  0.79879395    -0.74060
O423        O  0.32823637  0.47419561  0.79895760    -0.74110
O424        O  0.29810800  0.51247287  0.82626647    -0.74160
O425        O  0.32040387  0.51352960  0.84984759    -0.74090
O426        O  0.35042047  0.47511447  0.82269601    -0.74070
O427        O  0.34866420  0.51481687  0.82250474    -0.74050
O428        O  0.32202615  0.47410070  0.84996572    -0.74110
Ni429      Ni  0.31235680  0.49324624  0.81171530     1.25410
Ni430      Ni  0.33620874  0.49443456  0.83707576     1.25360
C431        C  0.30680770  0.46655571  0.84226191     0.88150
C432        C  0.34178032  0.52095254  0.80624792     0.88090
C433        C  0.34408078  0.46801764  0.80659636     0.88110
C434        C  0.30436589  0.51948323  0.84246862     0.88290
O435        O  0.47804471  0.31852808  0.84862288    -0.74020
O436        O  0.51820534  0.34543998  0.82084589    -0.74060
O437        O  0.47853117  0.34620803  0.82036950    -0.74110
O438        O  0.51757119  0.31769894  0.84867917    -0.74160
O439        O  0.51741497  0.29499329  0.82540150    -0.74090
O440        O  0.47809801  0.32291892  0.79765390    -0.74070
O441        O  0.51760052  0.32276977  0.79745304    -0.74050
O442        O  0.47769034  0.29549283  0.82558896    -0.74110
Ni443      Ni  0.49808240  0.33280687  0.83544683     1.25410
Ni444      Ni  0.49771228  0.30820690  0.81073483     1.25360
C445        C  0.47107775  0.30276076  0.84151480     0.88150
C446        C  0.52464772  0.33843618  0.80476522     0.88090
C447        C  0.47158762  0.33897274  0.80454133     0.88110
C448        C  0.52428066  0.30185152  0.84137672     0.88290
C449        C  0.61393006  0.58718415  0.76489888     0.03530
C450        C  0.62387124  0.59758391  0.75019837    -0.12620
C451        C  0.61552053  0.61415893  0.74165033     0.01030
C452        C  0.59831172  0.62192327  0.74949255    -0.11140
C453        C  0.58836438  0.61224706  0.76456530     0.03520
C454        C  0.59579782  0.59441659  0.77134003    -0.10570
H455        H  0.63805782  0.59292742  0.74520176     0.09120
H456        H  0.59297585  0.63567864  0.74395636     0.06650
H457        H  0.58747991  0.58638842  0.78208853     0.06490
C458        C  0.72546324  0.40337515  0.87923230     0.03530
C459        C  0.71773779  0.39529770  0.89643788    -0.12620
C460        C  0.72592850  0.37855117  0.90476348     0.01030
C461        C  0.74230767  0.37006312  0.89596323    -0.11140
C462        C  0.75096919  0.37848113  0.87940487     0.03520
C463        C  0.74230739  0.39504895  0.87099292    -0.10570
H464        H  0.70500758  0.40179156  0.90313998     0.09120
H465        H  0.74831072  0.35680878  0.90205558     0.06650
H466        H  0.74856401  0.40133788  0.85790646     0.06490
C467        C  0.58883249  0.26528069  0.11401329     0.03530
C468        C  0.59562922  0.24693081  0.12008491    -0.12620
C469        C  0.61173711  0.23822015  0.11094652     0.01030
C470        C  0.62035448  0.24743737  0.09483680    -0.11140
C471        C  0.61344810  0.26546640  0.08814407     0.03520
C472        C  0.59803312  0.27449442  0.09814137    -0.10570
H473        H  0.58868745  0.23956094  0.13219698     0.09120
H474        H  0.63256549  0.24054794  0.08754988     0.06650
H475        H  0.59338870  0.28891004  0.09374114     0.06490
C476        C  0.72740635  0.40305212  0.11362908     0.03530
C477        C  0.74507246  0.39550922  0.12070084    -0.12620
C478        C  0.75276480  0.37808717  0.11326646     0.01030
C479        C  0.74333899  0.36886392  0.09762085    -0.11140
C480        C  0.72609112  0.37655201  0.08988153     0.03520
C481        C  0.71780129  0.39317610  0.09843051    -0.10570
H482        H  0.75285517  0.40318238  0.13211194     0.09120
H483        H  0.74929237  0.35553528  0.09158066     0.06650
H484        H  0.70390603  0.39839569  0.09313370     0.06490
O485        O  0.69587551  0.32425361  0.97672756    -0.74020
O486        O  0.66867333  0.29668446  0.01683727    -0.74060
O487        O  0.66831374  0.29644086  0.97711018    -0.74110
O488        O  0.69626868  0.32451940  0.01650965    -0.74160
O489        O  0.67238183  0.34653206  0.01769344    -0.74090
O490        O  0.64608330  0.32011825  0.97613835    -0.74070
O491        O  0.64486296  0.31873195  0.01597101    -0.74050
O492        O  0.67365445  0.34793744  0.97788118    -0.74110
Ni493      Ni  0.68311455  0.30966387  0.99679251     1.25410
Ni494      Ni  0.65841426  0.33416045  0.99692177     1.25360
C495        C  0.68906531  0.34043804  0.97046698     0.88150
C496        C  0.65245527  0.30331533  0.02325711     0.88090
C497        C  0.65299850  0.30403528  0.96966705     0.88110
C498        C  0.68849911  0.33970399  0.02409397     0.88290
C499        C  0.26687282  0.61080059  0.08739764     0.03530
C500        C  0.24956638  0.61831547  0.09543402    -0.12620
C501        C  0.24235887  0.61147562  0.11330258     0.01030
C502        C  0.25179561  0.59597532  0.12263239    -0.11140
C503        C  0.26844036  0.58739449  0.11432248     0.03520
C504        C  0.27627338  0.59542069  0.09712632    -0.10570
H505        H  0.24174560  0.62978926  0.08795132     0.09120
H506        H  0.24630434  0.59081385  0.13653320     0.06650
H507        H  0.28983309  0.58973659  0.09146661     0.06490
C508        C  0.37930085  0.72442669  0.90361444     0.03530
C509        C  0.39514609  0.71523117  0.89442053    -0.12620
C510        C  0.40454583  0.72392561  0.87841268     0.01030
C511        C  0.39728244  0.74151048  0.87094235    -0.11140
C512        C  0.38124982  0.75066615  0.87971146     0.03520
C513        C  0.37289733  0.74250381  0.89648875    -0.10570
H514        H  0.40000152  0.70111687  0.89952490     0.09120
H515        H  0.40413433  0.74813694  0.85832258     0.06650
H516        H  0.36103892  0.75005915  0.90366640     0.06490
C517        C  0.38022634  0.72361440  0.08817330     0.03530
C518        C  0.37357536  0.74164250  0.09539348    -0.12620
C519        C  0.38086186  0.74943453  0.11283199     0.01030
C520        C  0.39572184  0.73963731  0.12274586    -0.11140
C521        C  0.40318049  0.72205080  0.11551263     0.03520
C522        C  0.39500168  0.71386669  0.09855322    -0.10570
H523        H  0.36251260  0.74971160  0.08757644     0.09120
H524        H  0.40130545  0.74554957  0.13631131     0.06650
H525        H  0.40017303  0.69986001  0.09357679     0.06490
O526        O  0.31992540  0.64281908  0.01532162    -0.74020
O527        O  0.34891470  0.67082390  0.97647966    -0.74060
O528        O  0.34776125  0.67089620  0.01607411    -0.74110
O529        O  0.32133324  0.64289458  0.97550209    -0.74160
O530        O  0.29780479  0.66528731  0.97548133    -0.74090
O531        O  0.32495110  0.69390200  0.01508333    -0.74070
O532        O  0.32543794  0.69320592  0.97540611    -0.74050
O533        O  0.29725240  0.66600557  0.01507603    -0.74110
Ni534      Ni  0.33529510  0.65601947  0.99589708     1.25410
Ni535      Ni  0.31055445  0.68040679  0.99524470     1.25360
C536        C  0.30399422  0.65003924  0.02192520     0.88150
C537        C  0.34172343  0.68645245  0.96927593     0.88090
C538        C  0.34069295  0.68701457  0.02234690     0.88110
C539        C  0.30532710  0.64961091  0.96868402     0.88290
C540        C  0.72792275  0.58787186  0.11382701     0.03530
C541        C  0.74503437  0.59631808  0.12111860    -0.12620
C542        C  0.75231163  0.61354902  0.11309065     0.01030
C543        C  0.74265280  0.62237331  0.09743106    -0.11140
C544        C  0.72593323  0.61374270  0.08925166     0.03520
C545        C  0.71898100  0.59617869  0.09734547    -0.10570
H546        H  0.75261643  0.58964155  0.13325873     0.09120
H547        H  0.74815927  0.63603105  0.09174571     0.06650
H548        H  0.70640374  0.58906481  0.09105841     0.06490
C549        C  0.58825525  0.72462755  0.11315985     0.03530
C550        C  0.59718619  0.74086471  0.12178726    -0.12620
C551        C  0.61401655  0.74907044  0.11349022     0.01030
C552        C  0.62181117  0.74077322  0.09641009    -0.11140
C553        C  0.61269984  0.72482600  0.08728344     0.03520
C554        C  0.59580056  0.71692335  0.09578477    -0.10570
H555        H  0.59095691  0.74709612  0.13492579     0.09120
H556        H  0.63525786  0.74654039  0.09048566     0.06650
H557        H  0.58872305  0.70445695  0.08915014     0.06490
O558        O  0.69495340  0.66779094  0.01679958    -0.74020
O559        O  0.66800861  0.69378112  0.97523564    -0.74060
O560        O  0.66602127  0.69457683  0.01505612    -0.74110
O561        O  0.69683202  0.66710298  0.97732381    -0.74160
O562        O  0.67473421  0.64340231  0.97648705    -0.74090
O563        O  0.64422164  0.67050289  0.01476794    -0.74070
O564        O  0.64560264  0.67025063  0.97501277    -0.74050
O565        O  0.67294957  0.64391088  0.01609107    -0.74110
Ni566      Ni  0.68220019  0.68168957  0.99612245     1.25410
Ni567      Ni  0.65857692  0.65618639  0.99551776     1.25360
C568        C  0.68837000  0.65156895  0.02329870     0.88150
C569        C  0.65249036  0.68619481  0.96814828     0.88090
C570        C  0.65037733  0.68674501  0.02161295     0.88110
C571        C  0.69089002  0.65074232  0.97059681     0.88290
O572        O  0.47651946  0.67079329  0.14562764    -0.74020
O573        O  0.51730210  0.64396308  0.17224298    -0.74060
O574        O  0.47770416  0.64350835  0.17360797    -0.74110
O575        O  0.51612597  0.67148959  0.14415070    -0.74160
O576        O  0.51744785  0.69405010  0.16762391    -0.74090
O577        O  0.47753305  0.66722140  0.19585199    -0.74070
O578        O  0.51714411  0.66650959  0.19570232    -0.74050
O579        O  0.47778491  0.69463700  0.16776798    -0.74110
Ni580      Ni  0.49692888  0.65660964  0.15809427     1.25410
Ni581      Ni  0.49750807  0.68144072  0.18255431     1.25360
C582        C  0.47023744  0.68696080  0.15247539     0.88150
C583        C  0.52402254  0.65080562  0.18828863     0.88090
C584        C  0.47070805  0.65118343  0.18917731     0.88110
C585        C  0.52340211  0.68711646  0.15132450     0.88290
O586        O  0.67520837  0.51522303  0.14428742    -0.74020
O587        O  0.64729521  0.47524317  0.17137277    -0.74060
O588        O  0.64676173  0.51511996  0.17151992    -0.74110
O589        O  0.67568347  0.47582103  0.14433842    -0.74160
O590        O  0.69791989  0.47620288  0.16803050    -0.74090
O591        O  0.66878811  0.51505604  0.19547503    -0.74070
O592        O  0.66949004  0.47559584  0.19517037    -0.74050
O593        O  0.69723808  0.51588005  0.16819195    -0.74110
Ni594      Ni  0.66039601  0.49536489  0.15707460     1.25410
Ni595      Ni  0.68416811  0.49571173  0.18254775     1.25360
C596        C  0.69076399  0.52220540  0.15182824     0.88150
C597        C  0.65410472  0.46848573  0.18739915     0.88090
C598        C  0.65319420  0.52173371  0.18779514     0.88110
C599        C  0.69136616  0.46923328  0.15196426     0.88290
C600        C  0.72763999  0.58727670  0.87910987     0.03530
C601        C  0.71995958  0.59538059  0.89640932    -0.12620
C602        C  0.72981229  0.61025864  0.90662035     0.01030
C603        C  0.74757161  0.61708198  0.89891316    -0.11140
C604        C  0.75475305  0.61018594  0.88102912     0.03520
C605        C  0.74458730  0.59550635  0.87110923    -0.10570
H606        H  0.70608028  0.59022918  0.90168704     0.09120
H607        H  0.75567165  0.62830259  0.90646389     0.06650
H608        H  0.74991906  0.59057745  0.85706360     0.06490
O609        O  0.69410239  0.51587566  0.82575021    -0.74020
O610        O  0.66655585  0.47531315  0.79875392    -0.74060
O611        O  0.66585146  0.51490295  0.79813779    -0.74110
O612        O  0.69487429  0.47630336  0.82628507    -0.74160
O613        O  0.67209373  0.47615900  0.84953277    -0.74090
O614        O  0.64322529  0.51479459  0.82142317    -0.74070
O615        O  0.64402793  0.47518212  0.82222170    -0.74050
O616        O  0.67129836  0.51592977  0.84894050    -0.74110
Ni617      Ni  0.68115677  0.49560794  0.81139807     1.25410
Ni618      Ni  0.65687663  0.49553279  0.83636134     1.25360
C619        C  0.68703448  0.52283077  0.84162998     0.88150
C620        C  0.65094678  0.46830303  0.80627337     0.88090
C621        C  0.64986348  0.52146174  0.80525723     0.88110
C622        C  0.68804357  0.46960384  0.84235215     0.88290
O623        O  0.51635882  0.67142524  0.84880722    -0.74020
O624        O  0.47767683  0.64231249  0.82112373    -0.74060
O625        O  0.51730355  0.64287414  0.82158798    -0.74110
O626        O  0.47689894  0.67079316  0.84826299    -0.74160
O627        O  0.47666461  0.69285098  0.82436649    -0.74090
O628        O  0.51713175  0.66505209  0.79784850    -0.74070
O629        O  0.47771133  0.66441350  0.79729868    -0.74050
O630        O  0.51635032  0.69357656  0.82501527    -0.74110
Ni631      Ni  0.49707493  0.65604108  0.83577711     1.25410
Ni632      Ni  0.49698831  0.67979069  0.81031859     1.25360
C633        C  0.52289130  0.68721742  0.84133639     0.88150
C634        C  0.47106940  0.64870484  0.80484253     0.88090
C635        C  0.52402827  0.64946476  0.80541850     0.88110
C636        C  0.46982332  0.68617000  0.84043646     0.88290
C637        C  0.82177681  0.64713834  0.84550304     0.03530
C638        C  0.83038207  0.63893964  0.82884482    -0.12620
C639        C  0.84652026  0.64783412  0.81994491     0.01030
C640        C  0.85370381  0.66537737  0.82767367    -0.11140
C641        C  0.84552547  0.67341570  0.84463532     0.03520
C642        C  0.82967809  0.66414504  0.85362686    -0.10570
H643        H  0.82463253  0.62544407  0.82297815     0.09120
H644        H  0.86583689  0.67267857  0.82067987     0.06650
H645        H  0.82328636  0.67035818  0.86670454     0.06490
C646        C  0.34563582  0.84432284  0.82104836     0.03530
C647        C  0.35381307  0.82761651  0.82947400    -0.12620
C648        C  0.34621147  0.81989230  0.84681666     0.01030
C649        C  0.32993803  0.82873219  0.85551763    -0.11140
C650        C  0.32134524  0.84527088  0.84706460     0.03520
C651        C  0.32917712  0.85283307  0.82969922    -0.10570
H652        H  0.36623355  0.82067620  0.82260794     0.09120
H653        H  0.32389932  0.82266584  0.86881709     0.06650
H654        H  0.32249176  0.86540082  0.82290094     0.06490
C655        C  0.26627380  0.88033196  0.58622933     0.03530
C656        C  0.24976099  0.87225460  0.59517758    -0.12620
C657        C  0.24211186  0.88031060  0.61236188     0.01030
C658        C  0.25100473  0.89681737  0.62053192    -0.11140
C659        C  0.26766170  0.90505080  0.61191601     0.03520
C660        C  0.27498740  0.89686248  0.59457407    -0.10570
H661        H  0.24301529  0.85940860  0.58892832     0.09120
H662        H  0.24508954  0.90308843  0.63379084     0.06650
H663        H  0.28776631  0.90311178  0.58777387     0.06490
C664        C  0.58985440  0.87519167  0.26712540     0.03530
C665        C  0.59798391  0.86750721  0.25001166    -0.12620
C666        C  0.61432375  0.87631942  0.24149754     0.01030
C667        C  0.62265888  0.89278645  0.25030217    -0.11140
C668        C  0.61471904  0.90065506  0.26751399     0.03520
C669        C  0.59809452  0.89185448  0.27568908    -0.10570
H670        H  0.59164840  0.85464690  0.24336753     0.09120
H671        H  0.63555973  0.89925720  0.24387996     0.06650
H672        H  0.59141242  0.89800246  0.28863879     0.06490
C673        C  0.58826723  0.22530320  0.61157435     0.03530
C674        C  0.59603349  0.24255802  0.61952130    -0.12620
C675        C  0.61321180  0.25078179  0.61205599     0.01030
C676        C  0.62223270  0.24216120  0.59584342    -0.11140
C677        C  0.61448382  0.22528948  0.58734518     0.03520
C678        C  0.59773993  0.21670005  0.59546683    -0.10570
H679        H  0.58875853  0.24959430  0.63167442     0.09120
H680        H  0.63541923  0.24851240  0.58989310     0.06650
H681        H  0.59251289  0.20303915  0.58954324     0.06490
C682        C  0.26841461  0.90219209  0.37804710     0.03530
C683        C  0.25127535  0.89394657  0.37048375    -0.12620
C684        C  0.24290624  0.87731654  0.37911787     0.01030
C685        C  0.25197443  0.86909271  0.39556641    -0.11140
C686        C  0.26936564  0.87693692  0.40293377     0.03520
C687        C  0.27742215  0.89353655  0.39422418    -0.10570
H688        H  0.24465802  0.90030146  0.35762484     0.09120
H689        H  0.24544535  0.85670575  0.40285057     0.06650
H690        H  0.29080209  0.89964860  0.39996670     0.06490
C691        C  0.37961006  0.90210448  0.26687730     0.03530
C692        C  0.39551305  0.89299078  0.27597017    -0.12620
C693        C  0.40404869  0.87634636  0.26769922     0.01030
C694        C  0.39655934  0.86878500  0.25021918    -0.11140
C695        C  0.38052243  0.87753404  0.24115416     0.03520
C696        C  0.37212527  0.89416214  0.24954324    -0.10570
H697        H  0.40095862  0.89851585  0.28974787     0.09120
H698        H  0.40321832  0.85605421  0.24364350     0.06650
H699        H  0.35957005  0.90080070  0.24267338     0.06490
C700        C  0.26923016  0.08878584  0.37659938     0.03530
C701        C  0.25283254  0.09770873  0.36824377    -0.12620
C702        C  0.24284888  0.11248798  0.37817943     0.01030
C703        C  0.24936703  0.11842670  0.39658755    -0.11140
C704        C  0.26688925  0.11127097  0.40443789     0.03520
C705        C  0.27675939  0.09646923  0.39412934    -0.10570
H706        H  0.24776345  0.09319531  0.35396914     0.09120
H707        H  0.24075813  0.12894878  0.40460658     0.06650
H708        H  0.29038705  0.09090852  0.39959457     0.06490
C709        C  0.38055197  0.08536000  0.26504044     0.03530
C710        C  0.37117561  0.09478633  0.24954213    -0.12620
C711        C  0.37883756  0.11204067  0.24184051     0.01030
C712        C  0.39546027  0.12041710  0.25021487    -0.11140
C713        C  0.40594353  0.11054197  0.26485249     0.03520
C714        C  0.39850971  0.09261444  0.27165230    -0.10570
H715        H  0.35773186  0.08895540  0.24366944     0.09120
H716        H  0.40007341  0.13459072  0.24513238     0.06650
H717        H  0.40640860  0.08433514  0.28249472     0.06490
O718        O  0.34883316  0.97459804  0.31890199    -0.74020
O719        O  0.32213399  0.01432716  0.34757287    -0.74060
O720        O  0.32177656  0.97445418  0.34732746    -0.74110
O721        O  0.34909641  0.01408652  0.31914012    -0.74160
O722        O  0.32605478  0.01373087  0.29621532    -0.74090
O723        O  0.29771323  0.97539157  0.32546983    -0.74070
O724        O  0.29891594  0.01502627  0.32485533    -0.74050
O725        O  0.32481201  0.97415617  0.29700338    -0.74110
Ni726      Ni  0.33626035  0.99435530  0.33406767     1.25410
Ni727      Ni  0.31101657  0.99460503  0.31009125     1.25360
C728        C  0.34097367  0.96750857  0.30351269     0.88150
C729        C  0.30651447  0.02172754  0.34057165     0.88090
C730        C  0.30550466  0.96808069  0.34077543     0.88110
C731        C  0.34207307  0.02045763  0.30305412     0.88290
C732        C  0.40337864  0.22489946  0.61425615     0.03530
C733        C  0.39622069  0.24280839  0.62107117    -0.12620
C734        C  0.37999846  0.25158716  0.61230624     0.01030
C735        C  0.37130114  0.24257974  0.59610792    -0.11140
C736        C  0.37818899  0.22460515  0.58906184     0.03520
C737        C  0.39429753  0.21591399  0.59823573    -0.10570
H738        H  0.40327366  0.24997227  0.63326972     0.09120
H739        H  0.35894808  0.24946899  0.58916965     0.06650
H740        H  0.39956318  0.20191896  0.59315876     0.06490
C741        C  0.40652200  0.22671029  0.38053386     0.03530
C742        C  0.39849464  0.21844496  0.39752140    -0.12620
C743        C  0.38233307  0.22694361  0.40674199     0.01030
C744        C  0.37429774  0.24402724  0.39889684    -0.11140
C745        C  0.38174354  0.25217092  0.38166016     0.03520
C746        C  0.39789937  0.24348729  0.37259729    -0.10570
H747        H  0.40449610  0.20502846  0.40323916     0.09120
H748        H  0.36193170  0.25079489  0.40603022     0.06650
H749        H  0.40330196  0.24942601  0.35897503     0.06490
C750        C  0.58817890  0.22515427  0.38059701     0.03530
C751        C  0.59450717  0.24386760  0.37472647    -0.12620
C752        C  0.61161999  0.25220501  0.38219282     0.01030
C753        C  0.62172405  0.24261557  0.39708852    -0.11140
C754        C  0.61525117  0.22457022  0.40404305     0.03520
C755        C  0.59928675  0.21544477  0.39496905    -0.10570
H756        H  0.58632491  0.25218940  0.36414800     0.09120
H757        H  0.63472874  0.24913884  0.40320880     0.06650
H758        H  0.59605238  0.20061953  0.39904528     0.06490
O759        O  0.51661578  0.16708185  0.29710711    -0.74020
O760        O  0.47558992  0.19346249  0.32436130    -0.74060
O761        O  0.51509559  0.19515494  0.32456488    -0.74110
O762        O  0.47699430  0.16492477  0.29678659    -0.74160
O763        O  0.47786908  0.14249094  0.32019456    -0.74090
O764        O  0.51582084  0.17254909  0.34779558    -0.74070
O765        O  0.47621000  0.17072151  0.34758761    -0.74050
O766        O  0.51723262  0.14426171  0.32028418    -0.74110
Ni767      Ni  0.49599889  0.18095328  0.30985927     1.25410
Ni768      Ni  0.49681672  0.15672906  0.33480335     1.25360
C769        C  0.52381030  0.15148793  0.30434805     0.88150
C770        C  0.46906680  0.18638419  0.34038810     0.88090
C771        C  0.52207015  0.18863401  0.34062603     0.88110
C772        C  0.47098339  0.14875069  0.30402539     0.88290
O773        O  0.32626080  0.19437573  0.51565049    -0.74020
O774        O  0.29745185  0.16692437  0.47669773    -0.74060
O775        O  0.29809428  0.16727741  0.51615778    -0.74110
O776        O  0.32579933  0.19413614  0.47586586    -0.74160
O777        O  0.34852415  0.17093585  0.47586383    -0.74090
O778        O  0.32044949  0.14378485  0.51593428    -0.74070
O779        O  0.31986275  0.14353310  0.47631426    -0.74050
O780        O  0.34883908  0.17104128  0.51553873    -0.74110
Ni781      Ni  0.31114176  0.18151622  0.49606410     1.25410
Ni782      Ni  0.33523979  0.15647974  0.49586388     1.25360
C783        C  0.34201416  0.18702538  0.52238167     0.88150
C784        C  0.30383049  0.15073585  0.46999548     0.88090
C785        C  0.30485214  0.15129395  0.52295327     0.88110
C786        C  0.34163813  0.18691277  0.46912343     0.88290
C787        C  0.40551248  0.76586533  0.61274453     0.03530
C788        C  0.39707461  0.74951524  0.62158082    -0.12620
C789        C  0.37964064  0.74168167  0.61437559     0.01030
C790        C  0.37059908  0.75043601  0.59821658    -0.11140
C791        C  0.37890040  0.76684814  0.58916892     0.03520
C792        C  0.39666526  0.77409768  0.59627630    -0.10570
H793        H  0.40392607  0.74306604  0.63426507     0.09120
H794        H  0.35686836  0.74467979  0.59297906     0.06650
H795        H  0.40360460  0.78636378  0.58916633     0.06490
C796        C  0.40476816  0.76681735  0.37942157     0.03530
C797        C  0.39633564  0.77482555  0.39631356    -0.12620
C798        C  0.37950695  0.76661495  0.40444973     0.01030
C799        C  0.37162065  0.74965927  0.39621474    -0.11140
C800        C  0.38031940  0.74095585  0.37984612     0.03520
C801        C  0.39678022  0.74974297  0.37138927    -0.10570
H802        H  0.40256560  0.78777298  0.40287227     0.09120
H803        H  0.35853694  0.74337262  0.40244063     0.06650
H804        H  0.40324052  0.74339804  0.35841416     0.06490
C805        C  0.61415685  0.76631825  0.40474447     0.03530
C806        C  0.62069155  0.74827102  0.39757321    -0.12620
C807        C  0.61238781  0.73994571  0.38081033     0.01030
C808        C  0.59661953  0.74929273  0.37180313    -0.11140
C809        C  0.58928370  0.76691522  0.37922261     0.03520
C810        C  0.59851724  0.77557993  0.39534968    -0.10570
H811        H  0.63236587  0.74065869  0.40494893     0.09120
H812        H  0.59014729  0.74291330  0.35887275     0.06650
H813        H  0.59370866  0.78972962  0.40043069     0.06490
O814        O  0.51725691  0.79663114  0.32443792    -0.74020
O815        O  0.47610902  0.82316074  0.29790470    -0.74060
O816        O  0.51568668  0.82396397  0.29629693    -0.74110
O817        O  0.47769124  0.79578696  0.32603462    -0.74160
O818        O  0.47695538  0.81988268  0.34791782    -0.74090
O819        O  0.51724764  0.84637389  0.31990614    -0.74070
O820        O  0.47766468  0.84726753  0.31974184    -0.74050
O821        O  0.51660571  0.81906503  0.34801416    -0.74110
Ni822      Ni  0.49666053  0.80904834  0.31034828     1.25410
Ni823      Ni  0.49711641  0.83398549  0.33471636     1.25360
C824        C  0.52388717  0.80361571  0.34045806     0.88150
C825        C  0.47011525  0.83956482  0.30448041     0.88090
C826        C  0.52318336  0.83941011  0.30361018     0.88110
C827        C  0.47067000  0.80349464  0.34156206     0.88290
O828        O  0.32156907  0.84754396  0.47641052    -0.74020
O829        O  0.34785072  0.81973761  0.51694512    -0.74060
O830        O  0.34927373  0.81949769  0.47727757    -0.74110
O831        O  0.32022574  0.84761282  0.51588861    -0.74160
O832        O  0.29762779  0.82423884  0.51567829    -0.74090
O833        O  0.32585851  0.79694912  0.47611686    -0.74070
O834        O  0.32529359  0.79638529  0.51579728    -0.74050
O835        O  0.29842474  0.82468800  0.47591993    -0.74110
Ni836      Ni  0.33557493  0.83440461  0.49664949     1.25410
Ni837      Ni  0.31097085  0.80975584  0.49587618     1.25360
C838        C  0.30578515  0.84054220  0.46938356     0.88150
C839        C  0.34083559  0.80360310  0.52318603     0.88090
C840        C  0.34206384  0.80386314  0.47003583     0.88110
C841        C  0.30436318  0.84028422  0.52242762     0.88290
C842        C  0.61417807  0.76771516  0.59047290     0.03530
C843        C  0.62212331  0.75028776  0.59734930    -0.12620
C844        C  0.61326021  0.74036979  0.61283127     0.01030
C845        C  0.59580608  0.74752544  0.62078888    -0.11140
C846        C  0.58815783  0.76567046  0.61490272     0.03520
C847        C  0.59773113  0.77566404  0.59962248    -0.10570
H848        H  0.63529971  0.74455755  0.59077555     0.09120
H849        H  0.58831699  0.73867772  0.63144850     0.06650
H850        H  0.59257423  0.78973704  0.59474733     0.06490
C851        C  0.58610592  0.87955768  0.72719733     0.03530
C852        C  0.59470451  0.87089210  0.74360412    -0.12620
C853        C  0.61205159  0.87841886  0.75146323     0.01030
C854        C  0.62053979  0.89497187  0.74286113    -0.11140
C855        C  0.61149346  0.90449473  0.72712835     0.03520
C856        C  0.59410771  0.89676656  0.71962867    -0.10570
H857        H  0.58810103  0.85805020  0.74997190     0.09120
H858        H  0.63443518  0.90015254  0.74822888     0.06650
H859        H  0.58694536  0.90391974  0.70750701     0.06490
C860        C  0.72878937  0.88318424  0.58429706     0.03530
C861        C  0.71764533  0.89625154  0.59534805    -0.12620
C862        C  0.72426439  0.90268577  0.61351079     0.01030
C863        C  0.74073712  0.89404746  0.62186618    -0.11140
C864        C  0.75270203  0.88115428  0.61100886     0.03520
C865        C  0.74707385  0.87734294  0.59151423    -0.10570
H866        H  0.70365081  0.90127828  0.59014206     0.09120
H867        H  0.74394743  0.89789692  0.63674951     0.06650
H868        H  0.75648411  0.86954319  0.58166869     0.06490
C869        C  0.26729777  0.11231851  0.58819745     0.03530
C870        C  0.24896791  0.11885486  0.59457634    -0.12620
C871        C  0.24031919  0.11115563  0.61142654     0.01030
C872        C  0.24918800  0.09547208  0.62096903    -0.11140
C873        C  0.26747163  0.08865488  0.61485504     0.03520
C874        C  0.27667617  0.09757957  0.59886261    -0.10570
H875        H  0.24148922  0.13028005  0.58667649     0.09120
H876        H  0.24199553  0.08885806  0.63338994     0.06650
H877        H  0.29128419  0.09312324  0.59494295     0.06490
C878        C  0.37880393  0.90451217  0.72645552     0.03530
C879        C  0.37027839  0.89577902  0.74291768    -0.12620
C880        C  0.37847585  0.87903877  0.75128327     0.01030
C881        C  0.39541431  0.87104902  0.74306913    -0.11140
C882        C  0.40403070  0.87943027  0.72649119     0.03520
C883        C  0.39558840  0.89610615  0.71826377    -0.10570
H884        H  0.35712204  0.90187177  0.74913541     0.09120
H885        H  0.40177613  0.85810311  0.74947113     0.06650
H886        H  0.40191419  0.90237657  0.70521015     0.06490
C887        C  0.40452606  0.11328365  0.72566446     0.03530
C888        C  0.39618739  0.12135035  0.74262676    -0.12620
C889        C  0.38023519  0.11236688  0.75181508     0.01030
C890        C  0.37208055  0.09563783  0.74338309    -0.11140
C891        C  0.37990612  0.08750017  0.72629365     0.03520
C892        C  0.39608667  0.09646189  0.71752055    -0.10570
H893        H  0.40202448  0.13469668  0.74868655     0.09120
H894        H  0.35940069  0.08901903  0.75006170     0.06650
H895        H  0.40197060  0.09048870  0.70412444     0.06490
O896        O  0.32540938  0.97588489  0.69495938    -0.74020
O897        O  0.29769737  0.01604891  0.66796824    -0.74060
O898        O  0.29764987  0.97653182  0.66685573    -0.74110
O899        O  0.32514707  0.01544453  0.69586621    -0.74160
O900        O  0.34835953  0.01596983  0.67305805    -0.74090
O901        O  0.32092353  0.97692812  0.64410141    -0.74070
O902        O  0.32073082  0.01641819  0.64496806    -0.74050
O903        O  0.34844338  0.97642889  0.67196207    -0.74110
Ni904      Ni  0.31065558  0.99592170  0.68224075     1.25410
Ni905      Ni  0.33544302  0.99647532  0.65771631     1.25360
C906        C  0.34132167  0.96932876  0.68769791     0.88150
C907        C  0.30477717  0.02295939  0.65210999     0.88090
C908        C  0.30484652  0.97020323  0.65078946     0.88110
C909        C  0.34102410  0.02244243  0.68900957     0.88290
C910        C  0.72448319  0.87969888  0.40466416     0.03530
C911        C  0.71564383  0.89503902  0.39429424    -0.12620
C912        C  0.72526850  0.90405189  0.37859090     0.01030
C913        C  0.74324893  0.89677116  0.37223789    -0.11140
C914        C  0.75192371  0.88100924  0.38183687     0.03520
C915        C  0.74288226  0.87310051  0.39840912    -0.10570
H916        H  0.70108443  0.89979265  0.39798946     0.09120
H917        H  0.75034300  0.90319136  0.35964204     0.06650
H918        H  0.75017541  0.86150336  0.40622603     0.06490
C919        C  0.58738811  0.11229363  0.26556578     0.03530
C920        C  0.59519486  0.11965245  0.24815848    -0.12620
C921        C  0.61124607  0.11062621  0.23929197     0.01030
C922        C  0.61937314  0.09401003  0.24800848    -0.11140
C923        C  0.61195587  0.08657072  0.26568838     0.03520
C924        C  0.59606085  0.09608827  0.27448475    -0.10570
H925        H  0.58875838  0.13244109  0.24151297     0.09120
H926        H  0.63182607  0.08712449  0.24117933     0.06650
H927        H  0.59072770  0.09138123  0.28859341     0.06490
C928        C  0.72502636  0.08600377  0.37874940     0.03530
C929        C  0.74215213  0.09383828  0.37071273    -0.12620
C930        C  0.75151196  0.10960188  0.37966009     0.01030
C931        C  0.74370056  0.11766677  0.39672180    -0.11140
C932        C  0.72619554  0.11061520  0.40461847     0.03520
C933        C  0.71728381  0.09434627  0.39588323    -0.10570
H934        H  0.74795587  0.08801321  0.35718999     0.09120
H935        H  0.75120116  0.12970559  0.40366376     0.06650
H936        H  0.70411119  0.08841168  0.40222218     0.06490
O937        O  0.67261501  0.97520154  0.34618445    -0.74020
O938        O  0.64434150  0.01432931  0.31819555    -0.74060
O939        O  0.64476139  0.97470247  0.31857447    -0.74110
O940        O  0.67200929  0.01475392  0.34592253    -0.74160
O941        O  0.69562031  0.01398999  0.32352552    -0.74090
O942        O  0.66687213  0.97556200  0.29468667    -0.74070
O943        O  0.66784157  0.01517154  0.29572972    -0.74050
O944        O  0.69475488  0.97434985  0.32231323    -0.74110
Ni945      Ni  0.65760582  0.99474024  0.33303112     1.25410
Ni946      Ni  0.68209720  0.99478157  0.30822539     1.25360
C947        C  0.68802419  0.96794732  0.33852193     0.88150
C948        C  0.65180397  0.02167703  0.30269371     0.88090
C949        C  0.65139322  0.96837376  0.30228500     0.88110
C950        C  0.68823376  0.02103808  0.33922340     0.88290
C951        C  0.58829113  0.11294290  0.72487548     0.03530
C952        C  0.59478826  0.11893936  0.74341357    -0.12620
C953        C  0.61121239  0.11036741  0.75194767     0.01030
C954        C  0.62041244  0.09476108  0.74255285    -0.11140
C955        C  0.61400246  0.08826717  0.72422297     0.03520
C956        C  0.59802775  0.09754465  0.71542588    -0.10570
H957        H  0.58742215  0.13061673  0.75106015     0.09120
H958        H  0.63267229  0.08775779  0.74958199     0.06650
H959        H  0.59340261  0.09296796  0.70101226     0.06490
C960        C  0.72653447  0.08605682  0.61350320     0.03530
C961        C  0.74377101  0.09413734  0.62106362    -0.12620
C962        C  0.75140183  0.11150816  0.61351094     0.01030
C963        C  0.74210653  0.12060670  0.59777603    -0.11140
C964        C  0.72489930  0.11280608  0.58990904     0.03520
C965        C  0.71716466  0.09561266  0.59796021    -0.10570
H966        H  0.75128011  0.08699238  0.63297731     0.09120
H967        H  0.74802970  0.13405074  0.59198077     0.06650
H968        H  0.70372616  0.08977653  0.59217764     0.06490
O969        O  0.69344454  0.97354376  0.66876092    -0.74020
O970        O  0.66677786  0.01534607  0.69447153    -0.74060
O971        O  0.66481382  0.97580832  0.69551993    -0.74110
O972        O  0.69547891  0.01329170  0.66780688    -0.74160
O973        O  0.67319709  0.01428770  0.64418239    -0.74090
O974        O  0.64323972  0.97563052  0.67122028    -0.74070
O975        O  0.64428356  0.01522154  0.67100664    -0.74050
O976        O  0.67193872  0.97475995  0.64436501    -0.74110
Ni977      Ni  0.68093362  0.99447998  0.68247590     1.25410
Ni978      Ni  0.65737342  0.99500322  0.65684296     1.25360
C979        C  0.68688433  0.96715267  0.65246425     0.88150
C980        C  0.65115393  0.02219032  0.68692976     0.88090
C981        C  0.64928379  0.96909804  0.68766040     0.88110
C982        C  0.68910941  0.02044398  0.65176615     0.88290
O983        O  0.51595850  0.14345294  0.67036673    -0.74020
O984        O  0.47684739  0.17224458  0.64284942    -0.74060
O985        O  0.51638688  0.17198926  0.64315927    -0.74110
O986        O  0.47627553  0.14381102  0.66997809    -0.74160
O987        O  0.47672779  0.16579536  0.69396801    -0.74090
O988        O  0.51607946  0.19451176  0.66663818    -0.74070
O989        O  0.47631078  0.19421936  0.66685758    -0.74050
O990        O  0.51627947  0.16614470  0.69366412    -0.74110
Ni991      Ni  0.49637921  0.15706498  0.65575199     1.25410
Ni992      Ni  0.49634206  0.18097569  0.68110412     1.25360
C993        C  0.52284473  0.15026208  0.68637048     0.88150
C994        C  0.46983622  0.18773810  0.65055411     0.88090
C995        C  0.52309175  0.18771823  0.65067512     0.88110
C996        C  0.46966248  0.15034770  0.68621936     0.88290
O997        O  0.67341654  0.14294536  0.47731994    -0.74020
O998        O  0.64590321  0.17311687  0.51550273    -0.74060
O999        O  0.64680582  0.17201913  0.47589029    -0.74110
O1000       O  0.67247514  0.14430778  0.51705136    -0.74160
O1001       O  0.69685603  0.16577680  0.51619478    -0.74090
O1002       O  0.67049685  0.19425767  0.47606195    -0.74070
O1003       O  0.67029007  0.19461917  0.51605640    -0.74050
O1004       O  0.69690875  0.16537872  0.47655450    -0.74110
Ni1005     Ni  0.65879928  0.15730788  0.49642522     1.25410
Ni1006     Ni  0.68447047  0.18081589  0.49621503     1.25360
C1007       C  0.68949462  0.14940394  0.47035763     0.88150
C1008       C  0.65388897  0.18844344  0.52251482     0.88090
C1009       C  0.65457053  0.18755224  0.46901478     0.88110
C1010       C  0.68883819  0.15058216  0.52347781     0.88290
O1011       O  0.51509831  0.82066743  0.64424922    -0.74020
O1012       O  0.47594999  0.84872019  0.67274403    -0.74060
O1013       O  0.51550020  0.84825260  0.67239733    -0.74110
O1014       O  0.47552494  0.82125404  0.64459139    -0.74160
O1015       O  0.47620947  0.79737672  0.66668415    -0.74090
O1016       O  0.51442044  0.82576486  0.69587967    -0.74070
O1017       O  0.47495181  0.82482599  0.69478934    -0.74050
O1018       O  0.51556798  0.79817055  0.66764326    -0.74110
Ni1019     Ni  0.49553681  0.83556282  0.65767433     1.25410
Ni1020     Ni  0.49530935  0.81071799  0.68207011     1.25360
C1021       C  0.52200054  0.80487408  0.65141239     0.88150
C1022       C  0.46860205  0.84102719  0.68812481     0.88090
C1023       C  0.52149508  0.84149323  0.68873391     0.88110
C1024       C  0.46921339  0.80496977  0.65113818     0.88290
O1025       O  0.64319450  0.81951206  0.47859839    -0.74020
O1026       O  0.67333070  0.84843896  0.51596450    -0.74060
O1027       O  0.67145445  0.84676739  0.47648673    -0.74110
O1028       O  0.64476001  0.82124696  0.51835702    -0.74160
O1029       O  0.66728510  0.79781528  0.51833644    -0.74090
O1030       O  0.69396781  0.82342331  0.47630892    -0.74070
O1031       O  0.69568112  0.82495789  0.51576821    -0.74050
O1032       O  0.66588094  0.79628766  0.47853284    -0.74110
Ni1033     Ni  0.65734979  0.83480662  0.49738340     1.25410
Ni1034     Ni  0.68146063  0.80976302  0.49727628     1.25360
C1035       C  0.64998843  0.80342748  0.47192388     0.88150
C1036       C  0.68950830  0.84138292  0.52207535     0.88090
C1037       C  0.68696603  0.83924149  0.46932289     0.88110
C1038       C  0.65178879  0.80549286  0.52538844     0.88290
C1039       C  0.88076708  0.26343088  0.58680965     0.03530
C1040       C  0.87253177  0.24691955  0.59566701    -0.12620
C1041       C  0.88002938  0.23967607  0.61319790     0.01030
C1042       C  0.89566646  0.24922151  0.62218525    -0.11140
C1043       C  0.90425683  0.26571276  0.61353612     0.03520
C1044       C  0.89687097  0.27247212  0.59562998    -0.10570
H1045       H  0.86020493  0.23969284  0.58894017     0.09120
H1046       H  0.90091332  0.24389430  0.63610592     0.06650
H1047       H  0.90337922  0.28504813  0.58871999     0.06490
C1048       C  0.90651119  0.61176745  0.26637179     0.03530
C1049       C  0.89711970  0.62061574  0.25041239    -0.12620
C1050       C  0.88078766  0.61189041  0.24171384     0.01030
C1051       C  0.87315027  0.59475855  0.24978630    -0.11140
C1052       C  0.88199337  0.58595593  0.26596660     0.03520
C1053       C  0.89882592  0.59432793  0.27396192    -0.10570
H1054       H  0.90235343  0.63439863  0.24480587     0.09120
H1055       H  0.86001986  0.58844594  0.24369644     0.06650
H1056       H  0.90554985  0.58758570  0.28655667     0.06490
C1057       C  0.87992315  0.40408587  0.26624495     0.03530
C1058       C  0.87229156  0.39613776  0.24903771    -0.12620
C1059       C  0.88115387  0.37988915  0.24025763     0.01030
C1060       C  0.89751057  0.37141536  0.24919923    -0.11140
C1061       C  0.90507481  0.37913566  0.26662284     0.03520
C1062       C  0.89635152  0.39569881  0.27487397    -0.10570
H1063       H  0.85929498  0.40242824  0.24268185     0.09120
H1064       H  0.90423632  0.35868537  0.24269604     0.06650
H1065       H  0.90222589  0.40199678  0.28814011     0.06490
C1066       C  0.90655994  0.26485044  0.37847315     0.03530
C1067       C  0.89703907  0.24870054  0.36998446    -0.12620
C1068       C  0.88198643  0.23898289  0.37990059     0.01030
C1069       C  0.87545345  0.24619608  0.39784262    -0.11140
C1070       C  0.88372341  0.26296456  0.40605420     0.03520
C1071       C  0.89963796  0.27177854  0.39664777    -0.10570
H1072       H  0.90069155  0.24394735  0.35538465     0.09120
H1073       H  0.86342407  0.23903183  0.40517445     0.06650
H1074       H  0.90614293  0.28452207  0.40324290     0.06490
C1075       C  0.11475179  0.40499858  0.26461700     0.03530
C1076       C  0.12029580  0.39837391  0.24597395    -0.12620
C1077       C  0.11103264  0.38227456  0.23737977     0.01030
C1078       C  0.09508964  0.37369999  0.24689024    -0.11140
C1079       C  0.08889343  0.38047692  0.26520226     0.03520
C1080       C  0.09925484  0.39560196  0.27422469    -0.10570
H1081       H  0.13208762  0.40542220  0.23825467     0.09120
H1082       H  0.08758988  0.36160183  0.24003843     0.06650
H1083       H  0.09531677  0.39991686  0.28892400     0.06490
C1084       C  0.11323325  0.26668942  0.40353808     0.03530
C1085       C  0.12056967  0.24940507  0.39536585    -0.12620
C1086       C  0.11140295  0.24055764  0.37925149     0.01030
C1087       C  0.09464133  0.24937771  0.37140662    -0.11140
C1088       C  0.08741760  0.26687657  0.37921629     0.03520
C1089       C  0.09644799  0.27515498  0.39554101    -0.10570
H1090       H  0.13372125  0.24306363  0.40133765     0.09120
H1091       H  0.08707607  0.24267633  0.35927279     0.06650
H1092       H  0.09061711  0.28845578  0.40175590     0.06490
O1093       O  0.01692118  0.29922942  0.32560406    -0.74020
O1094       O  0.97813893  0.32719433  0.29689272    -0.74060
O1095       O  0.01762928  0.32650993  0.29757122    -0.74110
O1096       O  0.97733239  0.29966488  0.32503855    -0.74160
O1097       O  0.97713502  0.32272717  0.34794619    -0.74090
O1098       O  0.01753901  0.34982303  0.32026336    -0.74070
O1099       O  0.97780313  0.35016669  0.31998307    -0.74050
O1100       O  0.01667673  0.32227207  0.34862748    -0.74110
Ni1101     Ni  0.99748812  0.31233074  0.31047685     1.25410
Ni1102     Ni  0.99731787  0.33710593  0.33500857     1.25360
C1103       C  0.02332895  0.30627838  0.34168355     0.88150
C1104       C  0.97131765  0.34306655  0.30396441     0.88090
C1105       C  0.02453019  0.34235221  0.30456519     0.88110
C1106       C  0.97033178  0.30685622  0.34083316     0.88290
C1107       C  0.22685315  0.58827120  0.61446510     0.03530
C1108       C  0.24507938  0.59508845  0.62096057    -0.12620
C1109       C  0.25368709  0.61165486  0.61268170     0.01030
C1110       C  0.24454321  0.62086458  0.59692661    -0.11140
C1111       C  0.22628052  0.61453245  0.59031246     0.03520
C1112       C  0.21732802  0.59857516  0.59950665    -0.10570
H1113       H  0.25245878  0.58782782  0.63285354     0.09120
H1114       H  0.25166146  0.63310411  0.58994307     0.06650
H1115       H  0.20275111  0.59447640  0.59514379     0.06490
C1116       C  0.22594384  0.58814096  0.37935209     0.03530
C1117       C  0.24283348  0.59651592  0.37137665    -0.12620
C1118       C  0.25162881  0.61269732  0.38030104     0.01030
C1119       C  0.24359884  0.62019603  0.39759522    -0.11140
C1120       C  0.22645487  0.61229388  0.40551787     0.03520
C1121       C  0.21760966  0.59638652  0.39615987    -0.10570
H1122       H  0.24888013  0.59071742  0.35795176     0.09120
H1123       H  0.25064312  0.63233265  0.40484822     0.06650
H1124       H  0.20411891  0.59047767  0.40184482     0.06490
C1125       C  0.22540392  0.37715019  0.58796795     0.03530
C1126       C  0.24158523  0.36876330  0.59707032    -0.12620
C1127       C  0.24919242  0.37691036  0.61422248     0.01030
C1128       C  0.24029869  0.39348178  0.62233629    -0.11140
C1129       C  0.22432089  0.40251711  0.61310953     0.03520
C1130       C  0.21738781  0.39439582  0.59553420    -0.10570
H1131       H  0.24799112  0.35563218  0.59105546     0.09120
H1132       H  0.24603089  0.39938314  0.63582387     0.06650
H1133       H  0.20577877  0.40137872  0.58751663     0.06490
C1134       C  0.22535681  0.37846238  0.40469333     0.03530
C1135       C  0.24273556  0.37121208  0.39684936    -0.12620
C1136       C  0.25131593  0.37998102  0.38046174     0.01030
C1137       C  0.24231934  0.39639130  0.37214355    -0.11140
C1138       C  0.22484465  0.40397723  0.37986955     0.03520
C1139       C  0.21630130  0.39456160  0.39598696    -0.10570
H1140       H  0.24955712  0.35864374  0.40352900     0.09120
H1141       H  0.24878642  0.40306790  0.35937854     0.06650
H1142       H  0.20229898  0.39929056  0.40149603     0.06490
O1143       O  0.17239097  0.47668763  0.34833892    -0.74020
O1144       O  0.14426301  0.51588692  0.32030395    -0.74060
O1145       O  0.14484058  0.47642218  0.32032321    -0.74110
O1146       O  0.17175521  0.51646513  0.34829982    -0.74160
O1147       O  0.19556610  0.51598178  0.32609216    -0.74090
O1148       O  0.16764586  0.47721859  0.29716655    -0.74070
O1149       O  0.16808378  0.51690515  0.29812022    -0.74050
O1150       O  0.19509474  0.47637323  0.32504526    -0.74110
Ni1151     Ni  0.15750819  0.49634425  0.33516404     1.25410
Ni1152     Ni  0.18242112  0.49663351  0.31078863     1.25360
C1153       C  0.18799160  0.46955687  0.34091815     0.88150
C1154       C  0.15184702  0.52316892  0.30486123     0.88090
C1155       C  0.15183734  0.47013398  0.30416821     0.88110
C1156       C  0.18787826  0.52306665  0.34159224     0.88290
O1157       O  0.19480243  0.32282360  0.47512190    -0.74020
O1158       O  0.16848908  0.29611435  0.51635337    -0.74060
O1159       O  0.16704258  0.29515390  0.47667545    -0.74110
O1160       O  0.19624592  0.32389968  0.51477554    -0.74160
O1161       O  0.17233521  0.34586369  0.51634662    -0.74090
O1162       O  0.14507195  0.31907965  0.47574115    -0.74070
O1163       O  0.14455685  0.31809025  0.51543906    -0.74050
O1164       O  0.17284789  0.34675099  0.47665685    -0.74110
Ni1165     Ni  0.18247110  0.30866468  0.49572962     1.25410
Ni1166     Ni  0.15787166  0.33327759  0.49606402     1.25360
C1167       C  0.18808402  0.33910465  0.46904580     0.88150
C1168       C  0.15224946  0.30273317  0.52270367     0.88090
C1169       C  0.15160506  0.30276357  0.46948139     0.88110
C1170       C  0.18876373  0.33930928  0.52221512     0.88290
C1171       C  0.76906376  0.58700900  0.61288599     0.03530
C1172       C  0.77793537  0.59662721  0.59707022    -0.12620
C1173       C  0.76890335  0.61270707  0.58826628     0.01030
C1174       C  0.75132297  0.61979338  0.59579940    -0.11140
C1175       C  0.74285196  0.61103172  0.61219329     0.03520
C1176       C  0.75145560  0.59442533  0.62034090    -0.10570
H1177       H  0.79194157  0.59179433  0.59164369     0.09120
H1178       H  0.74459783  0.63251889  0.58931850     0.06650
H1179       H  0.74439066  0.58736564  0.63259624     0.06490
C1180       C  0.76625704  0.58594055  0.38039743     0.03530
C1181       C  0.74822760  0.59322248  0.37375052    -0.12620
C1182       C  0.74062438  0.61080201  0.38089473     0.01030
C1183       C  0.75007468  0.62036746  0.39626792    -0.11140
C1184       C  0.76752766  0.61297562  0.40377116     0.03520
C1185       C  0.77598484  0.59640779  0.39520651    -0.10570
H1186       H  0.74001206  0.58546840  0.36273265     0.09120
H1187       H  0.74394716  0.63362993  0.40228210     0.06650
H1188       H  0.79033712  0.59210547  0.39999411     0.06490
C1189       C  0.76910233  0.40193444  0.37767689     0.03530
C1190       C  0.75114404  0.39500640  0.37075629    -0.12620
C1191       C  0.74228424  0.37863006  0.37917743     0.01030
C1192       C  0.75091753  0.36989215  0.39552119    -0.11140
C1193       C  0.76919915  0.37614351  0.40234841     0.03520
C1194       C  0.77828559  0.39203043  0.39308973    -0.10570
H1195       H  0.74400327  0.40236411  0.35874537     0.09120
H1196       H  0.74348109  0.35795775  0.40267053     0.06650
H1197       H  0.79265347  0.39656612  0.39775218     0.06490
C1198       C  0.76847663  0.40225972  0.61364477     0.03530
C1199       C  0.74981578  0.39638312  0.61956408    -0.12620
C1200       C  0.74043481  0.38066436  0.61050197     0.01030
C1201       C  0.74913277  0.37197313  0.59409665    -0.11140
C1202       C  0.76764365  0.37794513  0.58739567     0.03520
C1203       C  0.77750555  0.39250650  0.59801921    -0.10570
H1204       H  0.74256232  0.40389736  0.63143126     0.09120
H1205       H  0.74150766  0.36027018  0.58683202     0.06650
H1206       H  0.79237470  0.39622864  0.59438159     0.06490
O1207       O  0.84911146  0.31743612  0.51597649    -0.74020
O1208       O  0.82242668  0.34573518  0.47583338    -0.74060
O1209       O  0.82115042  0.34539708  0.51552776    -0.74110
O1210       O  0.85026881  0.31771342  0.47640782    -0.74160
O1211       O  0.82718259  0.29486347  0.47575661    -0.74090
O1212       O  0.79813941  0.32259745  0.51446724    -0.74070
O1213       O  0.79959871  0.32267816  0.47484064    -0.74050
O1214       O  0.82582021  0.29478511  0.51543269    -0.74110
Ni1215     Ni  0.83656049  0.33240810  0.49597799     1.25410
Ni1216     Ni  0.81188609  0.30792808  0.49510162     1.25360
C1217       C  0.84171102  0.30157897  0.52246957     0.88150
C1218       C  0.80674381  0.33872776  0.46851923     0.88090
C1219       C  0.80490833  0.33842573  0.52165206     0.88110
C1220       C  0.84328929  0.30184950  0.46943533     0.88290
O1221       O  0.82636555  0.51597473  0.29729386    -0.74020
O1222       O  0.79911639  0.47454853  0.32306834    -0.74060
O1223       O  0.79768769  0.51409973  0.32417719    -0.74110
O1224       O  0.82758308  0.47632809  0.29608513    -0.74160
O1225       O  0.84944821  0.47576203  0.32019119    -0.74090
O1226       O  0.82013362  0.51480220  0.34756981    -0.74070
O1227       O  0.82085717  0.47524571  0.34720355    -0.74050
O1228       O  0.84912414  0.51538699  0.32051734    -0.74110
Ni1229     Ni  0.81191219  0.49525824  0.30930957     1.25410
Ni1230     Ni  0.83569675  0.49534406  0.33471960     1.25360
C1231       C  0.84219984  0.52251375  0.30470831     0.88150
C1232       C  0.80567163  0.46787253  0.33924932     0.88090
C1233       C  0.80403222  0.52095249  0.34035319     0.88110
C1234       C  0.84306100  0.46942946  0.30380552     0.88290
C1235       C  0.88117515  0.58630592  0.72643470     0.03530
C1236       C  0.89563418  0.59686749  0.71636279    -0.12620
C1237       C  0.90362903  0.61396735  0.72432142     0.01030
C1238       C  0.89552726  0.62176884  0.74141681    -0.11140
C1239       C  0.88069665  0.61190488  0.75135080     0.03520
C1240       C  0.87433091  0.59379721  0.74435380    -0.10570
H1241       H  0.90074519  0.59195152  0.70226904     0.09120
H1242       H  0.90062097  0.63568157  0.74689181     0.06650
H1243       H  0.86371149  0.58578485  0.75284527     0.06490
C1244       C  0.90483994  0.72490331  0.61375605     0.03530
C1245       C  0.89629141  0.74166144  0.62192426    -0.12620
C1246       C  0.87814801  0.74843141  0.61545382     0.01030
C1247       C  0.86903005  0.73904880  0.59970744    -0.11140
C1248       C  0.87783311  0.72302791  0.59043463     0.03520
C1249       C  0.89534710  0.71563324  0.59808458    -0.10570
H1250       H  0.90368304  0.74941289  0.63353982     0.09120
H1251       H  0.85492457  0.74413844  0.59483771     0.06650
H1252       H  0.90146897  0.70251065  0.59187208     0.06490
C1253       C  0.90390190  0.72508812  0.37753285     0.03530
C1254       C  0.89524623  0.71561318  0.39358384    -0.12620
C1255       C  0.87827808  0.72297263  0.40241354     0.01030
C1256       C  0.86991472  0.74009633  0.39502361    -0.11140
C1257       C  0.87842223  0.74981813  0.37921776     0.03520
C1258       C  0.89557951  0.74255930  0.37083471    -0.10570
H1259       H  0.90176145  0.70245653  0.39929679     0.09120
H1260       H  0.85667188  0.74582199  0.40145818     0.06650
H1261       H  0.90249206  0.75077007  0.35925594     0.06490
C1262       C  0.08998716  0.61431024  0.26814846     0.03530
C1263       C  0.09771866  0.62185782  0.25074136    -0.12620
C1264       C  0.11468773  0.61394492  0.24267768     0.01030
C1265       C  0.12368670  0.59803760  0.25168097    -0.11140
C1266       C  0.11591000  0.59008733  0.26886709     0.03520
C1267       C  0.09896826  0.59821621  0.27697261    -0.10570
H1268       H  0.09077559  0.63414572  0.24367738     0.09120
H1269       H  0.13665360  0.59176793  0.24519023     0.06650
H1270       H  0.09309647  0.59236082  0.29044497     0.06490
C1271       C  0.11524288  0.72518291  0.40423533     0.03530
C1272       C  0.12335684  0.74173351  0.39524840    -0.12620
C1273       C  0.11371622  0.75110080  0.37989151     0.01030
C1274       C  0.09634767  0.74336282  0.37262528    -0.11140
C1275       C  0.08843030  0.72622247  0.38050484     0.03520
C1276       C  0.09787994  0.71738150  0.39643401    -0.10570
H1277       H  0.13738109  0.74726483  0.39982136     0.09120
H1278       H  0.08909498  0.75067296  0.36064831     0.06650
H1279       H  0.09187653  0.70416146  0.40252746     0.06490
O1280       O  0.01726277  0.66645786  0.29823956    -0.74020
O1281       O  0.97729051  0.69414819  0.32531555    -0.74060
O1282       O  0.01683039  0.69473041  0.32537212    -0.74110
O1283       O  0.97772562  0.66569076  0.29809744    -0.74160
O1284       O  0.97750437  0.64369674  0.32202494    -0.74090
O1285       O  0.01736091  0.67219215  0.34878580    -0.74070
O1286       O  0.97787521  0.67216847  0.34924368    -0.74050
O1287       O  0.01706372  0.64362144  0.32141833    -0.74110
Ni1288     Ni  0.99724991  0.68104801  0.31092454     1.25410
Ni1289     Ni  0.99747203  0.65710258  0.33620673     1.25360
C1290       C  0.02386199  0.65060459  0.30545514     0.88150
C1291       C  0.97091151  0.68772912  0.34167708     0.88090
C1292       C  0.02383331  0.68804851  0.34134871     0.88110
C1293       C  0.97084878  0.65013101  0.30579808     0.88290
C1294       C  0.11412195  0.26516414  0.58766277     0.03530
C1295       C  0.12245256  0.24890572  0.59677640    -0.12620
C1296       C  0.11447200  0.24145139  0.61408956     0.01030
C1297       C  0.09859360  0.25100946  0.62272010    -0.11140
C1298       C  0.08988127  0.26716533  0.61365650     0.03520
C1299       C  0.09753287  0.27386676  0.59584369    -0.10570
H1300       H  0.13507290  0.24197576  0.59027248     0.09120
H1301       H  0.09310619  0.24590060  0.63664469     0.06650
H1302       H  0.09086028  0.28610095  0.58847326     0.06490
C1303       C  0.88060519  0.40364485  0.72631788     0.03530
C1304       C  0.87313162  0.39647804  0.74401388    -0.12620
C1305       C  0.88205517  0.38065741  0.75342908     0.01030
C1306       C  0.89883743  0.37237444  0.74513507    -0.11140
C1307       C  0.90627672  0.37907658  0.72722740     0.03520
C1308       C  0.89677334  0.39452475  0.71774446    -0.10570
H1309       H  0.85996576  0.40278597  0.75002688     0.09120
H1310       H  0.90595539  0.36040799  0.75256004     0.06650
H1311       H  0.90181011  0.39943017  0.70358646     0.06490
C1312       C  0.11508075  0.40274577  0.72476554     0.03530
C1313       C  0.12243440  0.39521701  0.74223541    -0.12620
C1314       C  0.11297880  0.37980701  0.75159469     0.01030
C1315       C  0.09583798  0.37210322  0.74366065    -0.11140
C1316       C  0.08859655  0.37886068  0.72563623     0.03520
C1317       C  0.09860489  0.39413020  0.71617927    -0.10570
H1318       H  0.13548658  0.40140673  0.74862341     0.09120
H1319       H  0.08847604  0.36046206  0.75137845     0.06650
H1320       H  0.09402754  0.39910364  0.70192301     0.06490
O1321       O  0.01632422  0.31866743  0.64510889    -0.74020
O1322       O  0.97706340  0.34590385  0.67392511    -0.74060
O1323       O  0.01652599  0.34581393  0.67349355    -0.74110
O1324       O  0.97658016  0.31862488  0.64556448    -0.74160
O1325       O  0.97694346  0.29505930  0.66791914    -0.74090
O1326       O  0.01675433  0.32235833  0.69594491    -0.74070
O1327       O  0.97706964  0.32234849  0.69630318    -0.74050
O1328       O  0.01650044  0.29512560  0.66750545    -0.74110
Ni1329     Ni  0.99660694  0.33305992  0.65870276     1.25410
Ni1330     Ni  0.99681963  0.30789567  0.68272956     1.25360
C1331       C  0.02316690  0.30262118  0.65172807     0.88150
C1332       C  0.97034700  0.33845754  0.68969144     0.88090
C1333       C  0.02349522  0.33839023  0.68915454     0.88110
C1334       C  0.96997639  0.30248639  0.65227285     0.88290
C1335       C  0.11173389  0.72709532  0.58671690     0.03530
C1336       C  0.09574889  0.71822982  0.59591312    -0.12620
C1337       C  0.08706449  0.72666099  0.61244361     0.01030
C1338       C  0.09500285  0.74377053  0.62035925    -0.11140
C1339       C  0.11127819  0.75261497  0.61165626     0.03520
C1340       C  0.11931983  0.74438588  0.59469019    -0.10570
H1341       H  0.09028065  0.70443800  0.59053453     0.09120
H1342       H  0.08905873  0.74968465  0.63377762     0.06650
H1343       H  0.13176599  0.75133689  0.58788840     0.06490
C1344       C  0.08769131  0.61069207  0.72671284     0.03530
C1345       C  0.09709260  0.62022367  0.74233857    -0.12620
C1346       C  0.11217218  0.61111712  0.75264369     0.01030
C1347       C  0.11920646  0.59311261  0.74620437    -0.11140
C1348       C  0.11160391  0.58411848  0.72945430     0.03520
C1349       C  0.09556756  0.59283199  0.72010575    -0.10570
H1350       H  0.09270183  0.63469591  0.74673844     0.09120
H1351       H  0.13110112  0.58636618  0.75406297     0.06650
H1352       H  0.08949984  0.58582769  0.70741185     0.06490
O1353       O  0.01518288  0.64141317  0.67066285    -0.74020
O1354       O  0.97804407  0.67264829  0.64295342    -0.74060
O1355       O  0.01765389  0.67009254  0.64387114    -0.74110
O1356       O  0.97557451  0.64400281  0.66964839    -0.74160
O1357       O  0.97703464  0.66551463  0.69404282    -0.74090
O1358       O  0.01774439  0.69272271  0.66729310    -0.74070
O1359       O  0.97825101  0.69419680  0.66731140    -0.74050
O1360       O  0.01648285  0.66378852  0.69417040    -0.74110
Ni1361     Ni  0.99660832  0.65624297  0.65593077     1.25410
Ni1362     Ni  0.99745004  0.67984127  0.68154835     1.25360
C1363       C  0.02227157  0.64760739  0.68682507     0.88150
C1364       C  0.97147072  0.68820958  0.65095163     0.88090
C1365       C  0.02457587  0.68572219  0.65135651     0.88110
C1366       C  0.96919622  0.65065094  0.68592775     0.88290
O1367       O  0.19764486  0.47625755  0.66768485    -0.74020
O1368       O  0.16963207  0.51387872  0.69823021    -0.74060
O1369       O  0.17039402  0.47424102  0.69589279    -0.74110
O1370       O  0.19708156  0.51575276  0.66991455    -0.74160
O1371       O  0.17399151  0.51639767  0.64712681    -0.74090
O1372       O  0.14665583  0.47560722  0.67370160    -0.74070
O1373       O  0.14643716  0.51495510  0.67552804    -0.74050
O1374       O  0.17397681  0.47687081  0.64546246    -0.74110
Ni1375     Ni  0.18451146  0.49503654  0.68375061     1.25410
Ni1376     Ni  0.15945486  0.49602747  0.65963944     1.25360
C1377       C  0.19014083  0.46999597  0.65174859     0.88150
C1378       C  0.15350591  0.52076746  0.69182279     0.88090
C1379       C  0.15431355  0.46791000  0.68887620     0.88110
C1380       C  0.18995860  0.52297863  0.65424459     0.88290
O1381       O  0.16780138  0.69383539  0.47698157    -0.74020
O1382       O  0.19562907  0.66710358  0.51728858    -0.74060
O1383       O  0.19575711  0.66649287  0.47752371    -0.74110
O1384       O  0.16779890  0.69459006  0.51663636    -0.74160
O1385       O  0.14477275  0.67168144  0.51676571    -0.74090
O1386       O  0.17331182  0.64299610  0.47799907    -0.74070
O1387       O  0.17281265  0.64397215  0.51762535    -0.74050
O1388       O  0.14530678  0.67042035  0.47699915    -0.74110
Ni1389     Ni  0.18255737  0.68131368  0.49710435     1.25410
Ni1390     Ni  0.15822098  0.65644098  0.49739187     1.25360
C1391       C  0.15225094  0.68624402  0.46996755     0.88150
C1392       C  0.18866346  0.65123763  0.52424416     0.88090
C1393       C  0.18892977  0.65042385  0.47095150     0.88110
C1394       C  0.15186454  0.68766320  0.52339101     0.88290
O1395       O  0.82666594  0.47420500  0.69465766    -0.74020
O1396       O  0.79886216  0.51440627  0.66771718    -0.74060
O1397       O  0.79910179  0.47467763  0.66673908    -0.74110
O1398       O  0.82639608  0.51360051  0.69572212    -0.74160
O1399       O  0.84970470  0.51413811  0.67312517    -0.74090
O1400       O  0.82183721  0.47564846  0.64349560    -0.74070
O1401       O  0.82201790  0.51523608  0.64489547    -0.74050
O1402       O  0.84940886  0.47446589  0.67133397    -0.74110
Ni1403     Ni  0.81191849  0.49420859  0.68198695     1.25410
Ni1404     Ni  0.83657640  0.49493673  0.65739019     1.25360
C1405       C  0.84237935  0.46748441  0.68717335     0.88150
C1406       C  0.80604671  0.52172466  0.65207088     0.88090
C1407       C  0.80614365  0.46841354  0.65057971     0.88110
C1408       C  0.84247301  0.52044839  0.68923076     0.88290
O1409       O  0.82093382  0.64274997  0.51576311    -0.74020
O1410       O  0.84913829  0.66988565  0.47601358    -0.74060
O1411       O  0.84918601  0.66970335  0.51596118    -0.74110
O1412       O  0.82070404  0.64284614  0.47602655    -0.74160
O1413       O  0.79895398  0.66699314  0.47546256    -0.74090
O1414       O  0.82652127  0.69294583  0.51655862    -0.74070
O1415       O  0.82733262  0.69394982  0.47690052    -0.74050
O1416       O  0.79803789  0.66583730  0.51529200    -0.74110
Ni1417     Ni  0.83580500  0.65546824  0.49591391     1.25410
Ni1418     Ni  0.81189781  0.68076478  0.49607007     1.25360
C1419       C  0.80503934  0.65000776  0.52223915     0.88150
C1420       C  0.84274392  0.68624611  0.46973308     0.88090
C1421       C  0.84217964  0.68538739  0.52331089     0.88110
C1422       C  0.80547471  0.65082032  0.46880655     0.88290
C1423       C  0.82144316  0.84527719  0.64911271     0.03530
C1424       C  0.82705609  0.82614955  0.64365271    -0.12620
C1425       C  0.84426137  0.81760925  0.65068968     0.01030
C1426       C  0.85416879  0.82658501  0.66612681    -0.11140
C1427       C  0.84798769  0.84470931  0.67308111     0.03520
C1428       C  0.83305164  0.85464517  0.66331516    -0.10570
H1429       H  0.81849164  0.81755858  0.63369342     0.09120
H1430       H  0.86666637  0.81954919  0.67270069     0.06650
H1431       H  0.83098715  0.86968118  0.66713322     0.06490
C1432       C  0.82264291  0.84775980  0.34986217     0.03530
C1433       C  0.83031160  0.83052002  0.35766532    -0.12620
C1434       C  0.84617196  0.82125622  0.34872995     0.01030
C1435       C  0.85422777  0.82915857  0.33164567    -0.11140
C1436       C  0.84705207  0.84667193  0.32386632     0.03520
C1437       C  0.83115137  0.85580183  0.33304854    -0.10570
H1438       H  0.82377021  0.82415508  0.37058561     0.09120
H1439       H  0.86601100  0.82155850  0.32438035     0.06650
H1440       H  0.82512378  0.86900586  0.32687075     0.06490
C1441       C  0.88219860  0.22517360  0.90551364     0.03530
C1442       C  0.89966254  0.21810586  0.89747206    -0.12620
C1443       C  0.90684499  0.22528213  0.87967710     0.01030
C1444       C  0.89747204  0.24114546  0.87083532    -0.11140
C1445       C  0.88022810  0.24879861  0.87882144     0.03520
C1446       C  0.87240494  0.24031736  0.89578536    -0.10570
H1447       H  0.90754897  0.20661083  0.90484930     0.09120
H1448       H  0.90347316  0.24735666  0.85759925     0.06650
H1449       H  0.85847272  0.24539972  0.90115317     0.06490
C1450       C  0.22548507  0.87856481  0.90513604     0.03530
C1451       C  0.24331041  0.87149853  0.89795395    -0.12620
C1452       C  0.25137357  0.87881446  0.88063052     0.01030
C1453       C  0.24211030  0.89429090  0.87104060    -0.11140
C1454       C  0.22447946  0.90183689  0.87815951     0.03520
C1455       C  0.21612109  0.89369947  0.89503008    -0.10570
H1456       H  0.25085453  0.86002410  0.90572458     0.09120
H1457       H  0.24835073  0.90012814  0.85772860     0.06650
H1458       H  0.20221860  0.89908967  0.90014912     0.06490
C1459       C  0.90273614  0.87683457  0.22566009     0.03530
C1460       C  0.89408712  0.86933111  0.24266034    -0.12620
C1461       C  0.87783805  0.87851297  0.25122594     0.01030
C1462       C  0.87021666  0.89529335  0.24223733    -0.11140
C1463       C  0.87829861  0.90245588  0.22478697     0.03520
C1464       C  0.89462795  0.89328284  0.21670676    -0.10570
H1465       H  0.90016717  0.85637685  0.24930641     0.09120
H1466       H  0.85817544  0.90303168  0.24888132     0.06650
H1467       H  0.90082026  0.89875003  0.20321272     0.06490
C1468       C  0.76859031  0.87992939  0.90495163     0.03530
C1469       C  0.75194304  0.87091066  0.89705802    -0.12620
C1470       C  0.74289809  0.87848601  0.88024201     0.01030
C1471       C  0.75090576  0.89510743  0.87131821    -0.11140
C1472       C  0.76760840  0.90396758  0.87895278     0.03520
C1473       C  0.77634725  0.89643072  0.89574731    -0.10570
H1474       H  0.74647260  0.85764838  0.90363777     0.09120
H1475       H  0.74427903  0.90107656  0.85827481     0.06650
H1476       H  0.78936780  0.90327607  0.90149429     0.06490
C1477       C  0.88107872  0.76526966  0.90589126     0.03530
C1478       C  0.87257256  0.74911229  0.89679074    -0.12620
C1479       C  0.88068552  0.74138146  0.87968848     0.01030
C1480       C  0.89699906  0.75037051  0.87125054    -0.11140
C1481       C  0.90570032  0.76663262  0.88024220     0.03520
C1482       C  0.89791041  0.77361537  0.89789972    -0.10570
H1483       H  0.85956848  0.74260112  0.90297082     0.09120
H1484       H  0.90287577  0.74468425  0.85770339     0.06650
H1485       H  0.90460615  0.78590116  0.90521674     0.06490
C1486       C  0.90567993  0.87915304  0.76907891     0.03530
C1487       C  0.89689952  0.86997818  0.75287935    -0.12620
C1488       C  0.88096703  0.87839155  0.74325152     0.01030
C1489       C  0.87237431  0.89521938  0.75103999    -0.11140
C1490       C  0.88024945  0.90414726  0.76763754     0.03520
C1491       C  0.89749290  0.89676401  0.77580402    -0.10570
H1492       H  0.90232333  0.85612602  0.74763404     0.09120
H1493       H  0.85947658  0.90129252  0.74427766     0.06650
H1494       H  0.90433513  0.90498299  0.78736331     0.06490
C1495       C  0.08869203  0.22305387  0.11357197     0.03530
C1496       C  0.09578636  0.24068686  0.12101581    -0.12620
C1497       C  0.11244678  0.24940364  0.11289844     0.01030
C1498       C  0.12132732  0.24065771  0.09660545    -0.11140
C1499       C  0.11441724  0.22289513  0.08908903     0.03520
C1500       C  0.09801276  0.21419388  0.09770112    -0.10570
H1501       H  0.08841299  0.24746227  0.13325597     0.09120
H1502       H  0.13384258  0.24757961  0.08992712     0.06650
H1503       H  0.09268713  0.20032860  0.09232227     0.06490
C1504       C  0.22576153  0.08628239  0.11400557     0.03530
C1505       C  0.24229074  0.09498640  0.12210430    -0.12620
C1506       C  0.24996829  0.11206287  0.11393565     0.01030
C1507       C  0.24057009  0.12064389  0.09789796    -0.11140
C1508       C  0.22416032  0.11180374  0.08935746     0.03520
C1509       C  0.21716579  0.09429290  0.09732486    -0.10570
H1510       H  0.24906968  0.08854003  0.13483944     0.09120
H1511       H  0.24597716  0.13433653  0.09220301     0.06650
H1512       H  0.20494789  0.08682878  0.09070548     0.06490
C1513       C  0.11590868  0.08703607  0.22478391     0.03530
C1514       C  0.12348625  0.09452419  0.24226908    -0.12620
C1515       C  0.11412724  0.10997692  0.25190921     0.01030
C1516       C  0.09723075  0.11800146  0.24370147    -0.11140
C1517       C  0.09032305  0.11163223  0.22549942     0.03520
C1518       C  0.09970967  0.09600680  0.21621789    -0.10570
H1519       H  0.13665365  0.08830587  0.24831476     0.09120
H1520       H  0.08957774  0.12942435  0.25147210     0.06650
H1521       H  0.09461292  0.09093698  0.20213107     0.06490
O1522       O  0.97762117  0.17003162  0.14532563    -0.74020
O1523       O  0.01717364  0.14143997  0.17221942    -0.74060
O1524       O  0.97765548  0.14210824  0.17316729    -0.74110
O1525       O  0.01712202  0.16936014  0.14443387    -0.74160
O1526       O  0.01817141  0.19210790  0.16775128    -0.74090
O1527       O  0.97824010  0.16534129  0.19600975    -0.74070
O1528       O  0.01786429  0.16432478  0.19534037    -0.74050
O1529       O  0.97861897  0.19300175  0.16836587    -0.74110
Ni1530     Ni  0.99736053  0.15490144  0.15795444     1.25410
Ni1531     Ni  0.99826681  0.17949396  0.18269439     1.25360
C1532       C  0.97134253  0.18602573  0.15264190     0.88150
C1533       C  0.02425952  0.14836158  0.18806099     0.88090
C1534       C  0.97118376  0.14953698  0.18906440     0.88110
C1535       C  0.02430585  0.18502995  0.15158787     0.88290
O1536       O  0.14431812  0.97520453  0.17055497    -0.74020
O1537       O  0.17330159  0.01414292  0.14340425    -0.74060
O1538       O  0.17255201  0.97447673  0.14338981    -0.74110
O1539       O  0.14525770  0.01477214  0.17089361    -0.74160
O1540       O  0.16844997  0.01470533  0.19370426    -0.74090
O1541       O  0.19487485  0.97368449  0.16699733    -0.74070
O1542       O  0.19645872  0.01309469  0.16625469    -0.74050
O1543       O  0.16649899  0.97503518  0.19430671    -0.74110
Ni1544     Ni  0.15805712  0.99466883  0.15621738     1.25410
Ni1545     Ni  0.18235979  0.99409221  0.18117422     1.25360
C1546       C  0.15077606  0.96840176  0.18667136     0.88150
C1547       C  0.18943590  0.02019665  0.15047845     0.88090
C1548       C  0.18805286  0.96723564  0.15087008     0.88110
C1549       C  0.15276691  0.02174075  0.18653533     0.88290
O1550       O  0.14432549  0.16984865  0.01575472    -0.74020
O1551       O  0.17255261  0.14221419  0.97615694    -0.74060
O1552       O  0.17207239  0.14208861  0.01584448    -0.74110
O1553       O  0.14473714  0.17005629  0.97613179    -0.74160
O1554       O  0.16739705  0.19324709  0.97706516    -0.74090
O1555       O  0.19555534  0.16453608  0.01562798    -0.74070
O1556       O  0.19510848  0.16559499  0.97601601    -0.74050
O1557       O  0.16783867  0.19224651  0.01675132    -0.74110
Ni1558     Ni  0.15760749  0.15521691  0.99595303     1.25410
Ni1559     Ni  0.18228623  0.17972474  0.99637622     1.25360
C1560       C  0.15165738  0.18539394  0.02304600     0.88150
C1561       C  0.18820829  0.14965426  0.96920446     0.88090
C1562       C  0.18820319  0.14879294  0.02241230     0.88110
C1563       C  0.15162133  0.18624960  0.96993142     0.88290
C1564       C  0.87942472  0.76596682  0.08776842     0.03530
C1565       C  0.87183029  0.74883323  0.09596675    -0.12620
C1566       C  0.87931863  0.74137476  0.11346658     0.01030
C1567       C  0.89515127  0.75071510  0.12237752    -0.11140
C1568       C  0.90307518  0.76774859  0.11429264     0.03520
C1569       C  0.89502488  0.77537898  0.09709514    -0.10570
H1570       H  0.85994204  0.74132959  0.08877680     0.09120
H1571       H  0.90105225  0.74495603  0.13586153     0.06650
H1572       H  0.90086092  0.78873178  0.09105551     0.06490
C1573       C  0.76949440  0.90262836  0.11443601     0.03530
C1574       C  0.75264000  0.89442217  0.12273065    -0.12620
C1575       C  0.74272342  0.87929147  0.11324373     0.01030
C1576       C  0.74982937  0.87205999  0.09549864    -0.11140
C1577       C  0.76734799  0.87913116  0.08759494     0.03520
C1578       C  0.77659555  0.89496263  0.09674278    -0.10570
H1579       H  0.74715631  0.89980155  0.13656628     0.09120
H1580       H  0.74195153  0.86050097  0.08817378     0.06650
H1581       H  0.78952200  0.90115489  0.09017396     0.06490
O1582       O  0.79920187  0.82631844  0.01546570    -0.74020
O1583       O  0.82618989  0.79837808  0.97556020    -0.74060
O1584       O  0.82562382  0.79744409  0.01526301    -0.74110
O1585       O  0.79980730  0.82737321  0.97597494    -0.74160
O1586       O  0.82433275  0.84872614  0.97605786    -0.74090
O1587       O  0.84933916  0.81962790  0.01652980    -0.74070
O1588       O  0.85074800  0.81966011  0.97702786    -0.74050
O1589       O  0.82268442  0.84877464  0.01578495    -0.74110
Ni1590     Ni  0.81187219  0.81159035  0.99552938     1.25410
Ni1591     Ni  0.83763719  0.83500535  0.99640497     1.25360
C1592       C  0.80645353  0.84211012  0.02223383     0.88150
C1593       C  0.84277039  0.80450413  0.96961658     0.88090
C1594       C  0.84152947  0.80382104  0.02264351     0.88110
C1595       C  0.80803801  0.84271225  0.96926642     0.88290
C1596       C  0.87982250  0.22195642  0.09027571     0.03530
C1597       C  0.87249599  0.23956272  0.09768250    -0.12620
C1598       C  0.88158655  0.24873726  0.11352481     0.01030
C1599       C  0.89851432  0.24066342  0.12149787    -0.11140
C1600       C  0.90612736  0.22311152  0.11422500     0.03520
C1601       C  0.89651410  0.21374748  0.09874198    -0.10570
H1602       H  0.85947687  0.24590500  0.09141613     0.09120
H1603       H  0.90573957  0.24811958  0.13342024     0.06650
H1604       H  0.90195561  0.19999197  0.09326741     0.06490
C1605       C  0.87942731  0.08892539  0.22558875     0.03530
C1606       C  0.87013876  0.09830632  0.24133922    -0.12620
C1607       C  0.87817569  0.11517514  0.24972307     0.01030
C1608       C  0.89485874  0.12348509  0.24134565    -0.11140
C1609       C  0.90405890  0.11454767  0.22545156     0.03520
C1610       C  0.89662985  0.09707672  0.21797059    -0.10570
H1611       H  0.85663220  0.09256203  0.24712029     0.09120
H1612       H  0.90071358  0.13694763  0.24718094     0.06650
H1613       H  0.90403615  0.09011292  0.20585101     0.06490
C1614       C  0.76719407  0.11200044  0.08723810     0.03530
C1615       C  0.75019587  0.11956815  0.09565592    -0.12620
C1616       C  0.74148627  0.11028526  0.11164607     0.01030
C1617       C  0.75000226  0.09341034  0.11937377    -0.11140
C1618       C  0.76740731  0.08590418  0.11151683     0.03520
C1619       C  0.77590947  0.09537350  0.09538615    -0.10570
H1620       H  0.74365632  0.13262931  0.08967309     0.09120
H1621       H  0.74327418  0.08639961  0.13184849     0.06650
H1622       H  0.78964698  0.09027622  0.08952299     0.06490
O1623       O  0.82027391  0.14282061  0.01594593    -0.74020
O1624       O  0.85068720  0.16963942  0.97753752    -0.74060
O1625       O  0.84936394  0.16910748  0.01730642    -0.74110
O1626       O  0.82143536  0.14328350  0.97637173    -0.74160
O1627       O  0.79948264  0.16726766  0.97639736    -0.74090
O1628       O  0.82816356  0.19371803  0.01632447    -0.74070
O1629       O  0.82882153  0.19359854  0.97683158    -0.74050
O1630       O  0.79905278  0.16744235  0.01628473    -0.74110
Ni1631     Ni  0.83623057  0.15536141  0.99677898     1.25410
Ni1632     Ni  0.81307657  0.18134637  0.99642082     1.25360
C1633       C  0.80500153  0.15101161  0.02283516     0.88150
C1634       C  0.84463811  0.18587340  0.97059943     0.88090
C1635       C  0.84323079  0.18556866  0.02363907     0.88110
C1636       C  0.80591364  0.15109727  0.96965328     0.88290
O1637       O  0.80005805  0.01589724  0.16756964    -0.74020
O1638       O  0.82771110  0.97572170  0.19438495    -0.74060
O1639       O  0.82830313  0.01537057  0.19484176    -0.74110
O1640       O  0.79954262  0.97628375  0.16716856    -0.74160
O1641       O  0.82274129  0.97535922  0.14437020    -0.74090
O1642       O  0.85024138  0.01602822  0.17082950    -0.74070
O1643       O  0.85100059  0.97644608  0.17162896    -0.74050
O1644       O  0.82197114  0.01503857  0.14353394    -0.74110
Ni1645     Ni  0.81310992  0.99583092  0.18183520     1.25410
Ni1646     Ni  0.83729688  0.99572484  0.15674428     1.25360
C1647       C  0.80655251  0.02225678  0.15123845     0.88150
C1648       C  0.84374214  0.96931751  0.18730845     0.88090
C1649       C  0.84367389  0.02259206  0.18706356     0.88110
C1650       C  0.80669816  0.96899289  0.15149908     0.88290
C1651       C  0.76654811  0.11210664  0.90651356     0.03530
C1652       C  0.75025504  0.12046371  0.89760122    -0.12620
C1653       C  0.74172575  0.11166049  0.88118983     0.01030
C1654       C  0.75056388  0.09503142  0.87306376    -0.11140
C1655       C  0.76730211  0.08677914  0.88153755     0.03520
C1656       C  0.77468181  0.09504465  0.89881813    -0.10570
H1657       H  0.74441493  0.13397101  0.90333028     0.09120
H1658       H  0.74451928  0.08868069  0.85991625     0.06650
H1659       H  0.78708451  0.08856304  0.90607959     0.06490
C1660       C  0.88015967  0.08752839  0.76770960     0.03530
C1661       C  0.87138244  0.09664001  0.75155840    -0.12620
C1662       C  0.87952268  0.11349955  0.74326990     0.01030
C1663       C  0.89586356  0.12202540  0.75211325    -0.11140
C1664       C  0.90458936  0.11339145  0.76844523     0.03520
C1665       C  0.89701566  0.09592433  0.77583225    -0.10570
H1666       H  0.85811534  0.09072222  0.74543343     0.09120
H1667       H  0.90177418  0.13548669  0.74635680     0.06650
H1668       H  0.90399116  0.08917868  0.78829255     0.06490
O1669       O  0.82074919  0.01510145  0.84900536    -0.74020
O1670       O  0.84813466  0.97528220  0.82105021    -0.74060
O1671       O  0.84893510  0.01494538  0.82166214    -0.74110
O1672       O  0.82003355  0.97553790  0.84849048    -0.74160
O1673       O  0.79771971  0.97579993  0.82479194    -0.74090
O1674       O  0.82625778  0.01598141  0.79840406    -0.74070
O1675       O  0.82599964  0.97649876  0.79724601    -0.74050
O1676       O  0.79784299  0.01538569  0.82595099    -0.74110
Ni1677     Ni  0.83527190  0.99519310  0.83586880     1.25410
Ni1678     Ni  0.81113447  0.99595484  0.81076203     1.25360
C1679       C  0.80481306  0.02185527  0.84205753     0.88150
C1680       C  0.84149192  0.96923887  0.80464865     0.88090
C1681       C  0.84218206  0.02225379  0.80586246     0.88110
C1682       C  0.80435225  0.96897671  0.84086048     0.88290
C1683       C  0.22428786  0.08711212  0.87742308     0.03530
C1684       C  0.24146673  0.09497012  0.86961441    -0.12620
C1685       C  0.25084545  0.11061910  0.87886897     0.01030
C1686       C  0.24271605  0.11847847  0.89595787    -0.11140
C1687       C  0.22534076  0.11097236  0.90379257     0.03520
C1688       C  0.21620036  0.09525475  0.89436667    -0.10570
H1689       H  0.24746081  0.08892890  0.85627649     0.09120
H1690       H  0.24996825  0.13050882  0.90318823     0.06650
H1691       H  0.20250004  0.08964361  0.89984652     0.06490
C1692       C  0.11576867  0.22553839  0.90362475     0.03530
C1693       C  0.12094095  0.24429372  0.89716725    -0.12620
C1694       C  0.11250816  0.25229821  0.88036238     0.01030
C1695       C  0.09697404  0.24269330  0.87129924    -0.11140
C1696       C  0.09076137  0.22439211  0.87802452     0.03520
C1697       C  0.10096697  0.21553547  0.89343333    -0.10570
H1698       H  0.13156425  0.25288182  0.90499376     0.09120
H1699       H  0.08992754  0.24940133  0.85885886     0.06650
H1700       H  0.09729243  0.20074051  0.89744947     0.06490
C1701       C  0.11427250  0.08640543  0.76623695     0.03530
C1702       C  0.12369819  0.09582093  0.75067773    -0.12620
C1703       C  0.11598241  0.11297028  0.74282768     0.01030
C1704       C  0.09921249  0.12124540  0.75096389    -0.11140
C1705       C  0.08935471  0.11190151  0.76630491     0.03520
C1706       C  0.09692873  0.09435454  0.77367205    -0.10570
H1707       H  0.13717413  0.09004796  0.74482227     0.09120
H1708       H  0.09401995  0.13503896  0.74536240     0.06650
H1709       H  0.08942646  0.08692727  0.78543870     0.06490
O1710       O  0.19436927  0.01451417  0.82444724    -0.74020
O1711       O  0.16654320  0.97444303  0.79742111    -0.74060
O1712       O  0.16618138  0.01389753  0.79720846    -0.74110
O1713       O  0.19488431  0.97481231  0.82484505    -0.74160
O1714       O  0.17179695  0.97401628  0.84781092    -0.74090
O1715       O  0.14419649  0.01440056  0.82121192    -0.74070
O1716       O  0.14373209  0.97473270  0.82065725    -0.74050
O1717       O  0.17243266  0.01361932  0.84852545    -0.74110
Ni1718     Ni  0.18132689  0.99439543  0.81015587     1.25410
Ni1719     Ni  0.15723281  0.99420801  0.83538731     1.25360
C1720       C  0.18780962  0.02082131  0.84077681     0.88150
C1721       C  0.15062161  0.96792526  0.80465941     0.88090
C1722       C  0.15075569  0.02097257  0.80497611     0.88110
C1723       C  0.18774903  0.96762439  0.84057361     0.88290
O1724       O  0.97899304  0.19460677  0.82527467    -0.74020
O1725       O  0.01677925  0.16465844  0.79683432    -0.74060
O1726       O  0.97712159  0.16621901  0.79806346    -0.74110
O1727       O  0.01855445  0.19309516  0.82390754    -0.74160
O1728       O  0.01780555  0.17129085  0.84798192    -0.74090
O1729       O  0.97780288  0.14309353  0.82094816    -0.74070
O1730       O  0.01728966  0.14284822  0.82091407    -0.74050
O1731       O  0.97814212  0.17153498  0.84817270    -0.74110
Ni1732     Ni  0.99785523  0.18044254  0.81016693     1.25410
Ni1733     Ni  0.99774008  0.15640559  0.83535363     1.25360
C1734       C  0.97200427  0.18769946  0.84118992     0.88150
C1735       C  0.02378067  0.14917974  0.80458731     0.88090
C1736       C  0.97062972  0.15029429  0.80528206     0.88110
C1737       C  0.02524782  0.18647923  0.84003257     0.88290
C1738       C  0.08935268  0.87601027  0.76588552     0.03530
C1739       C  0.09836469  0.86853231  0.74908730    -0.12620
C1740       C  0.11522284  0.87723601  0.74164550     0.01030
C1741       C  0.12309740  0.89363986  0.75084936    -0.11140
C1742       C  0.11410083  0.90157199  0.76749263     0.03520
C1743       C  0.09696719  0.89288413  0.77463873    -0.10570
H1744       H  0.09233594  0.85587986  0.74179688     0.09120
H1745       H  0.13641376  0.89999085  0.74520970     0.06650
H1746       H  0.08970699  0.89904378  0.78725766     0.06490
C1747       C  0.11228082  0.76467318  0.90675055     0.03530
C1748       C  0.12054565  0.74798790  0.89830012    -0.12620
C1749       C  0.11245801  0.73970599  0.88142269     0.01030
C1750       C  0.09569278  0.74799257  0.87323478    -0.11140
C1751       C  0.08742714  0.76473471  0.88146630     0.03520
C1752       C  0.09577340  0.77307564  0.89813483    -0.10570
H1753       H  0.13353723  0.74166472  0.90461894     0.09120
H1754       H  0.08947860  0.74184578  0.86005076     0.06650
H1755       H  0.08946725  0.78618020  0.90431233     0.06490
O1756       O  0.97875606  0.81924221  0.84906519    -0.74020
O1757       O  0.01763895  0.84625480  0.81949815    -0.74060
O1758       O  0.97838618  0.84629026  0.82068346    -0.74110
O1759       O  0.01838472  0.81925749  0.84805150    -0.74160
O1760       O  0.01731420  0.79522612  0.82606774    -0.74090
O1761       O  0.97795543  0.82312986  0.79786148    -0.74070
O1762       O  0.01752080  0.82228105  0.79745703    -0.74050
O1763       O  0.97792005  0.79584961  0.82644193    -0.74110
Ni1764     Ni  0.99832102  0.83356949  0.83514338     1.25410
Ni1765     Ni  0.99764680  0.80827533  0.81113662     1.25360
C1766       C  0.97173385  0.80324290  0.84245551     0.88150
C1767       C  0.02408961  0.83858641  0.80371454     0.88090
C1768       C  0.97152051  0.83924729  0.80481160     0.88110
C1769       C  0.02453276  0.80292869  0.84148382     0.88290
C1770       C  0.22438158  0.90009729  0.11438859     0.03530
C1771       C  0.24107296  0.89176704  0.12292733    -0.12620
C1772       C  0.25059978  0.87597525  0.11403992     0.01030
C1773       C  0.24270400  0.86767908  0.09710984    -0.11140
C1774       C  0.22602457  0.87562492  0.08864540     0.03520
C1775       C  0.21736405  0.89216965  0.09682604    -0.10570
H1776       H  0.24681425  0.89759802  0.13644800     0.09120
H1777       H  0.24931865  0.85483307  0.09071478     0.06650
H1778       H  0.20507106  0.89868845  0.08943196     0.06490
C1779       C  0.08747480  0.87817254  0.22602063     0.03530
C1780       C  0.09657031  0.86997763  0.24238801    -0.12620
C1781       C  0.11378351  0.87796725  0.24988304     0.01030
C1782       C  0.12187557  0.89448070  0.24102272    -0.11140
C1783       C  0.11274339  0.90332921  0.22498058     0.03520
C1784       C  0.09565068  0.89487263  0.21739545    -0.10570
H1785       H  0.09031548  0.85720014  0.24925525     0.09120
H1786       H  0.13533970  0.90041864  0.24668503     0.06650
H1787       H  0.08883525  0.90115000  0.20461942     0.06490
C1788       C  0.09026900  0.76742276  0.11609615     0.03530
C1789       C  0.09868777  0.75051927  0.12412450    -0.12620
C1790       C  0.11387717  0.74078290  0.11447341     0.01030
C1791       C  0.12131924  0.74852556  0.09709074    -0.11140
C1792       C  0.11343137  0.76551774  0.08896851     0.03520
C1793       C  0.09763876  0.77459409  0.09831192    -0.10570
H1794       H  0.09340249  0.74479880  0.13788096     0.09120
H1795       H  0.13351792  0.74142563  0.08999165     0.06650
H1796       H  0.09127646  0.78743087  0.09180704     0.06490
O1797       O  0.97624462  0.79553734  0.16739660    -0.74020
O1798       O  0.01476224  0.82304007  0.19717003    -0.74060
O1799       O  0.97495092  0.82257366  0.19590184    -0.74110
O1800       O  0.01576810  0.79588468  0.16888418    -0.74160
O1801       O  0.01639340  0.81938473  0.14647049    -0.74090
O1802       O  0.97577647  0.84646304  0.17383171    -0.74070
O1803       O  0.01522117  0.84663673  0.17478357    -0.74050
O1804       O  0.97650465  0.81943084  0.14532537    -0.74110
Ni1805     Ni  0.99540268  0.80844276  0.18315799     1.25410
Ni1806     Ni  0.99599795  0.83378666  0.15926698     1.25360
C1807       C  0.96969793  0.80326829  0.15170418     0.88150
C1808       C  0.02168177  0.83909388  0.19056600     0.88090
C1809       C  0.96840825  0.83867542  0.18914111     0.88110
C1810       C  0.02308873  0.80338011  0.15343380     0.88290
O1811       O  0.16805837  0.79569499  0.01699795    -0.74020
O1812       O  0.19504817  0.82283105  0.97653233    -0.74060
O1813       O  0.19610278  0.82308933  0.01607136    -0.74110
O1814       O  0.16696244  0.79538453  0.97741550    -0.74160
O1815       O  0.14493277  0.81928120  0.97710393    -0.74090
O1816       O  0.17277113  0.84572241  0.01736785    -0.74070
O1817       O  0.17301858  0.84663569  0.97769616    -0.74050
O1818       O  0.14472479  0.81829510  0.01673290    -0.74110
Ni1819     Ni  0.18235454  0.80841496  0.99672979     1.25410
Ni1820     Ni  0.15804518  0.83332526  0.99724312     1.25360
C1821       C  0.15208620  0.80262894  0.02369342     0.88150
C1822       C  0.18840210  0.83907954  0.97026101     0.88090
C1823       C  0.18891741  0.83866976  0.02337307     0.88110
C1824       C  0.15144961  0.80309112  0.97053697     0.88290
C1825       C  0.12286764  0.77454214  0.07162795     0.00250
C1826       C  0.14321217  0.77672794  0.07173224    -0.11630
C1827       C  0.15296330  0.78553904  0.05616123     0.02480
C1828       C  0.14230218  0.79266108  0.04007883     0.00160
C1829       C  0.12197707  0.79058683  0.03989671    -0.11570
C1830       C  0.11222559  0.78137748  0.05534198     0.02370
H1831       H  0.15154519  0.77186203  0.08425663     0.15350
H1832       H  0.11373446  0.79587443  0.02748509     0.15350
C1833       C  0.09145611  0.77855074  0.05374165     0.37000
C1834       C  0.17382850  0.78789661  0.05753107     0.36910
N1835       N  0.07480262  0.77631860  0.05245931    -0.43340
N1836       N  0.19053722  0.78978504  0.05864159    -0.43340
C1837       C  0.04001621  0.79385324  0.14390192     0.00250
C1838       C  0.05438054  0.80565439  0.13535799    -0.11630
C1839       C  0.07121423  0.79755695  0.12708623     0.02480
C1840       C  0.07334807  0.77704658  0.12596103     0.00160
C1841       C  0.05892705  0.76530361  0.13458867    -0.11570
C1842       C  0.04282677  0.77346178  0.14409260     0.02370
H1843       H  0.05289005  0.82137477  0.13595049     0.15350
H1844       H  0.06022988  0.74957749  0.13405601     0.15350
C1845       C  0.02983586  0.76043997  0.15428854     0.37000
C1846       C  0.08651113  0.81073877  0.12116100     0.36910
N1847       N  0.01991723  0.74982374  0.16285213    -0.43340
N1848       N  0.09876453  0.82134676  0.11650108    -0.43340
C1849       C  0.07004817  0.86848012  0.21747918     0.00250
C1850       C  0.07067443  0.84825783  0.21424262    -0.11630
C1851       C  0.05485165  0.83837338  0.20604025     0.02480
C1852       C  0.03796176  0.84876311  0.20074719     0.00160
C1853       C  0.03722601  0.86893706  0.20395576    -0.11570
C1854       C  0.05295217  0.87880533  0.21248154     0.02370
H1855       H  0.08377467  0.84017912  0.21776133     0.15350
H1856       H  0.02424678  0.87697575  0.19992460     0.15350
C1857       C  0.05088485  0.89934775  0.21649663     0.37000
C1858       C  0.05676481  0.81777422  0.20214040     0.36910
N1859       N  0.04922247  0.91581461  0.21971323    -0.43340
N1860       N  0.05829585  0.80129111  0.19893552    -0.43340
C1861       C  0.21676714  0.86587569  0.07192652     0.00250
C1862       C  0.22517107  0.86745672  0.05331475    -0.11630
C1863       C  0.21632881  0.85860876  0.03715213     0.02480
C1864       C  0.19886178  0.84815940  0.03968200     0.00160
C1865       C  0.19059254  0.84644096  0.05828879    -0.11570
C1866       C  0.19950490  0.85504506  0.07443944     0.02370
H1867       H  0.23849576  0.87573250  0.05142575     0.15350
H1868       H  0.17729730  0.83810496  0.06021985     0.15350
C1869       C  0.19108508  0.85200281  0.09353162     0.37000
C1870       C  0.22504197  0.86082481  0.01808611     0.36910
N1871       N  0.18442838  0.84938411  0.10883852    -0.43340
N1872       N  0.23193674  0.86261331  0.00276272    -0.43340
C1873       C  0.14113520  0.79343158  0.95441711     0.00250
C1874       C  0.13690149  0.77350822  0.95577163    -0.11630
C1875       C  0.12708773  0.76389871  0.94066170     0.02480
C1876       C  0.12177397  0.77425199  0.92364491     0.00160
C1877       C  0.12610958  0.79419632  0.92235678    -0.11570
C1878       C  0.13566039  0.80383115  0.93755015     0.02370
H1879       H  0.14097370  0.76553216  0.96880883     0.15350
H1880       H  0.12238831  0.80219849  0.90923075     0.15350
C1881       C  0.14056034  0.82415115  0.93505884     0.37000
C1882       C  0.12208311  0.74363727  0.94327851     0.36910
N1883       N  0.14456713  0.84040473  0.93306984    -0.43340
N1884       N  0.11807008  0.72740079  0.94538332    -0.43340
C1885       C  0.07093718  0.77440143  0.87171305     0.00250
C1886       C  0.07420283  0.79237639  0.86259920    -0.11630
C1887       C  0.05920707  0.80181011  0.85259765     0.02480
C1888       C  0.04060586  0.79316992  0.85163103     0.00160
C1889       C  0.03729079  0.77519428  0.86074603    -0.11570
C1890       C  0.05229245  0.76583211  0.87091834     0.02370
H1891       H  0.08858499  0.79890322  0.86309341     0.15350
H1892       H  0.02291184  0.76867129  0.86020047     0.15350
C1893       C  0.04812746  0.74785183  0.88100490     0.37000
C1894       C  0.06341138  0.82001091  0.84289764     0.36910
N1895       N  0.04480752  0.73351871  0.88924193    -0.43340
N1896       N  0.06686684  0.83455863  0.83510595    -0.43340
C1897       C  0.03993013  0.84827942  0.79294906     0.00250
C1898       C  0.05603897  0.83711175  0.78729526    -0.11630
C1899       C  0.07225100  0.84579871  0.77853956     0.02480
C1900       C  0.07223115  0.86603915  0.77463744     0.00160
C1901       C  0.05580843  0.87711018  0.77986503    -0.11570
C1902       C  0.03979134  0.86844218  0.78908979     0.02370
H1903       H  0.05631509  0.82164632  0.79054291     0.15350
H1904       H  0.05551938  0.89259889  0.77678624     0.15350
C1905       C  0.02320745  0.88041044  0.79400625     0.37000
C1906       C  0.08908496  0.83373300  0.77490290     0.36910
N1907       N  0.00987852  0.88996019  0.79791901    -0.43340
N1908       N  0.10249280  0.82392601  0.77207667    -0.43340
C1909       C  0.12278618  0.91883592  0.77737339     0.00250
C1910       C  0.12917130  0.93461353  0.76593229    -0.11630
C1911       C  0.13814420  0.95083527  0.77446984     0.02480
C1912       C  0.14045381  0.95168721  0.79490847     0.00160
C1913       C  0.13378510  0.93616935  0.80640705    -0.11570
C1914       C  0.12534926  0.91968830  0.79787020     0.02370
H1915       H  0.12717413  0.93426183  0.75022809     0.15350
H1916       H  0.13591671  0.93657383  0.82210272     0.15350
C1917       C  0.12059893  0.90348281  0.81044492     0.37000
C1918       C  0.14448635  0.96656109  0.76199306     0.36910
N1919       N  0.11679778  0.89052698  0.82055775    -0.43340
N1920       N  0.14960050  0.97915849  0.75200615    -0.43340
C1921       C  0.07191302  0.12093745  0.77561035     0.00250
C1922       C  0.07082788  0.12131023  0.79609792    -0.11630
C1923       C  0.05508795  0.12990220  0.80575518     0.02480
C1924       C  0.04004908  0.13882159  0.79488854     0.00160
C1925       C  0.04101530  0.13844634  0.77441727    -0.11570
C1926       C  0.05656102  0.12937135  0.76472469     0.02370
H1927       H  0.08256870  0.11517792  0.80469974     0.15350
H1928       H  0.02942866  0.14503553  0.76594410     0.15350
C1929       C  0.05597151  0.12840706  0.74366940     0.37000
C1930       C  0.05528065  0.13001722  0.82685587     0.36910
N1931       N  0.05550242  0.12770212  0.72678967    -0.43340
N1932       N  0.05544412  0.13002279  0.84375603    -0.43340
C1933       C  0.14070198  0.03732976  0.79526086     0.00250
C1934       C  0.13893481  0.03730058  0.77484029    -0.11630
C1935       C  0.13004032  0.05285245  0.76505281     0.02480
C1936       C  0.12308801  0.06905335  0.77575448     0.00160
C1937       C  0.12487544  0.06899605  0.79619581    -0.11570
C1938       C  0.13350941  0.05336775  0.80597792     0.02370
H1939       H  0.14431800  0.02496720  0.76652321     0.15350
H1940       H  0.11988406  0.08145661  0.80456781     0.15350
C1941       C  0.13573361  0.05468759  0.82691639     0.37000
C1942       C  0.12770350  0.05149490  0.74414534     0.36910
N1943       N  0.13755728  0.05576688  0.84368193    -0.43340
N1944       N  0.12585586  0.05040895  0.72738356    -0.43340
C1945       C  0.07393456  0.21437284  0.86856581     0.00250
C1946       C  0.07274719  0.21405665  0.84808246    -0.11630
C1947       C  0.05699327  0.20529979  0.83851981     0.02480
C1948       C  0.04201108  0.19631851  0.84948761     0.00160
C1949       C  0.04326914  0.19640520  0.86993572    -0.11570
C1950       C  0.05883152  0.20550897  0.87952167     0.02370
H1951       H  0.08430292  0.22053492  0.83944839     0.15350
H1952       H  0.03179192  0.18970340  0.87851051     0.15350
C1953       C  0.05837804  0.20622736  0.90059519     0.37000
C1954       C  0.05700589  0.20520321  0.81742446     0.36910
N1955       N  0.05795384  0.20673601  0.91748328    -0.43340
N1956       N  0.05702912  0.20516935  0.80052332    -0.43340
C1957       C  0.21478503  0.07025220  0.86789811     0.00250
C1958       C  0.21279146  0.05278558  0.87838067    -0.11630
C1959       C  0.20425205  0.03636226  0.86974616     0.02480
C1960       C  0.19760412  0.03733846  0.85031832     0.00160
C1961       C  0.19957335  0.05477244  0.83984748    -0.11570
C1962       C  0.20791984  0.07123801  0.84851541     0.02370
H1963       H  0.21814844  0.05193110  0.89325007     0.15350
H1964       H  0.19411010  0.05565552  0.82501310     0.15350
C1965       C  0.20849407  0.08919225  0.83756370     0.37000
C1966       C  0.20314567  0.01847824  0.88076656     0.36910
N1967       N  0.20885238  0.10361644  0.82884207    -0.43340
N1968       N  0.20234867  0.00408625  0.88951439    -0.43340
C1969       C  0.92144263  0.12288444  0.77806949     0.00250
C1970       C  0.93905478  0.11263472  0.77985432    -0.11630
C1971       C  0.95533318  0.12130098  0.78865476     0.02480
C1972       C  0.95408316  0.14053656  0.79574352     0.00160
C1973       C  0.93650767  0.15074920  0.79404372    -0.11570
C1974       C  0.92017606  0.14203931  0.78550915     0.02370
H1975       H  0.94014276  0.09793739  0.77413775     0.15350
H1976       H  0.93543218  0.16543987  0.79980412     0.15350
C1977       C  0.90206697  0.15272497  0.78534506     0.37000
C1978       C  0.97335515  0.11052714  0.78957937     0.36910
N1979       N  0.88752505  0.16123246  0.78530313    -0.43340
N1980       N  0.98785313  0.10197198  0.79024687    -0.43340
C1981       C  0.87107070  0.07009473  0.77706274     0.00250
C1982       C  0.86977657  0.06949742  0.79755315    -0.11630
C1983       C  0.86100577  0.05382502  0.80718484     0.02480
C1984       C  0.85268332  0.03847401  0.79628772     0.00160
C1985       C  0.85397439  0.03891689  0.77584345    -0.11570
C1986       C  0.86339044  0.05428648  0.76619770     0.02370
H1987       H  0.87534572  0.08153084  0.80616525     0.15350
H1988       H  0.84791770  0.02700536  0.76738263     0.15350
C1989       C  0.86556980  0.05298574  0.74526262     0.37000
C1990       C  0.86017864  0.05430011  0.82825728     0.36910
N1991       N  0.86727124  0.05190533  0.72847976    -0.43340
N1992       N  0.85970521  0.05471076  0.84514484    -0.43340
C1993       C  0.79482393  0.03788252  0.85252792     0.00250
C1994       C  0.80622602  0.05278439  0.86061470    -0.11630
C1995       C  0.79768273  0.06888987  0.86977517     0.02480
C1996       C  0.77718153  0.06985366  0.87198402     0.00160
C1997       C  0.76580176  0.05468591  0.86412438    -0.11570
C1998       C  0.77436915  0.03904607  0.85411789     0.02370
H1999       H  0.82192266  0.05224620  0.85905232     0.15350
H2000       H  0.75009607  0.05507154  0.86569236     0.15350
C2001       C  0.76182793  0.02430630  0.84586679     0.37000
C2002       C  0.81034036  0.08469457  0.87552746     0.36910
N2003       N  0.75174998  0.01253927  0.83920284    -0.43340
N2004       N  0.82053536  0.09733328  0.88007779    -0.43340
C2005       C  0.79553442  0.14149287  0.95353333     0.00250
C2006       C  0.78207404  0.12668995  0.95770061    -0.11630
C2007       C  0.77223044  0.11706678  0.94256106     0.02480
C2008       C  0.77609615  0.12211320  0.92299536     0.00160
C2009       C  0.78944723  0.13698708  0.91887312    -0.11570
C2010       C  0.79908784  0.14676314  0.93396274     0.02370
H2011       H  0.77921913  0.12272033  0.97276305     0.15350
H2012       H  0.79233665  0.14093802  0.90380853     0.15350
C2013       C  0.81248572  0.16217599  0.92897322     0.37000
C2014       C  0.75807153  0.10228201  0.94735067     0.36910
N2015       N  0.82304583  0.17460107  0.92471632    -0.43340
N2016       N  0.74662907  0.09049517  0.95114108    -0.43340
C2017       C  0.77732662  0.06917821  0.12127172     0.00250
C2018       C  0.77893640  0.06931637  0.14175068    -0.11630
C2019       C  0.78814538  0.05413958  0.15176634     0.02480
C2020       C  0.79628235  0.03839483  0.14127508     0.00160
C2021       C  0.79489215  0.03825856  0.12084607    -0.11570
C2022       C  0.78534000  0.05326911  0.11082386     0.02370
H2023       H  0.77323613  0.08153642  0.15001509     0.15350
H2024       H  0.80096491  0.02614488  0.11268235     0.15350
C2025       C  0.78339923  0.05140544  0.08994167     0.37000
C2026       C  0.78975426  0.05556691  0.17275351     0.36910
N2027       N  0.78204670  0.04957126  0.07320609    -0.43340
N2028       N  0.79104498  0.05671427  0.18956515    -0.43340
C2029       C  0.77627696  0.12200227  0.07035230     0.00250
C2030       C  0.78255883  0.14134685  0.07250731    -0.11630
C2031       C  0.79158718  0.15117514  0.05702632     0.02480
C2032       C  0.79450914  0.14155580  0.03904007     0.00160
C2033       C  0.78809229  0.12230294  0.03680925    -0.11570
C2034       C  0.77874714  0.11259833  0.05217577     0.02370
H2035       H  0.78068606  0.14866571  0.08642927     0.15350
H2036       H  0.79012154  0.11495300  0.02292328     0.15350
C2037       C  0.77088966  0.09343692  0.04859449     0.37000
C2038       C  0.79859499  0.17076125  0.06023311     0.36910
N2039       N  0.76433171  0.07822750  0.04546994    -0.43340
N2040       N  0.80427576  0.18642815  0.06280003    -0.43340
C2041       C  0.87070742  0.07135150  0.21617594     0.00250
C2042       C  0.87011681  0.07047561  0.19566680    -0.11630
C2043       C  0.86193777  0.05454135  0.18593957     0.02480
C2044       C  0.85363435  0.03911050  0.19675114     0.00160
C2045       C  0.85419237  0.03987899  0.21722668    -0.11570
C2046       C  0.86288666  0.05559743  0.22698403     0.02370
H2047       H  0.87577378  0.08250180  0.18710963     0.15350
H2048       H  0.84806696  0.02798473  0.22565300     0.15350
C2049       C  0.86414545  0.05474436  0.24801096     0.37000
C2050       C  0.86158038  0.05488673  0.16484754     0.36910
N2051       N  0.86508194  0.05403858  0.26486892    -0.43340
N2052       N  0.86137216  0.05516545  0.14795082    -0.43340
C2053       C  0.85319859  0.19496411  0.04018538     0.00250
C2054       C  0.85678460  0.18391694  0.05700430    -0.11630
C2055       C  0.86499531  0.19247363  0.07362343     0.02480
C2056       C  0.87030130  0.21237243  0.07335384     0.00160
C2057       C  0.86675010  0.22337815  0.05644095    -0.11570
C2058       C  0.85816039  0.21488908  0.03997152     0.02370
H2059       H  0.85253193  0.16869827  0.05737887     0.15350
H2060       H  0.87090204  0.23861743  0.05602786     0.15350
C2061       C  0.85516606  0.22673887  0.02282488     0.37000
C2062       C  0.86689186  0.18075829  0.09102251     0.36910
N2063       N  0.85279861  0.23620564  0.00905881    -0.43340
N2064       N  0.86836237  0.17137544  0.10497260    -0.43340
C2065       C  0.77934935  0.91945352  0.12410142     0.00250
C2066       C  0.76787936  0.93475086  0.13153766    -0.11630
C2067       C  0.77637594  0.95095624  0.14060956     0.02480
C2068       C  0.79682899  0.95240082  0.14188115     0.00160
C2069       C  0.80832493  0.93720411  0.13446653    -0.11570
C2070       C  0.79984772  0.92067843  0.12602008     0.02370
H2071       H  0.75216677  0.93415219  0.13011583     0.15350
H2072       H  0.82404260  0.93793756  0.13588603     0.15350
C2073       C  0.81257051  0.90487331  0.12043490     0.37000
C2074       C  0.76376975  0.96607369  0.14804616     0.36910
N2075       N  0.82281969  0.89225896  0.11594676    -0.43340
N2076       N  0.75364726  0.97813899  0.15407822    -0.43340
C2077       C  0.79611745  0.85212601  0.03831632     0.00250
C2078       C  0.78760629  0.84061365  0.05290442    -0.11630
C2079       C  0.77830543  0.84901221  0.06898966     0.02480
C2080       C  0.77656719  0.86952707  0.07034639     0.00160
C2081       C  0.78479382  0.88106226  0.05546296    -0.11570
C2082       C  0.79473846  0.87257609  0.03969484     0.02370
H2083       H  0.78884142  0.82489870  0.05209484     0.15350
H2084       H  0.78352111  0.89678657  0.05616548     0.15350
C2085       C  0.80297528  0.88513768  0.02494384     0.37000
C2086       C  0.77180799  0.83613116  0.08435145     0.36910
N2087       N  0.80961544  0.89520828  0.01313945    -0.43340
N2088       N  0.76661188  0.82575327  0.09660749    -0.43340
C2089       C  0.92009772  0.77724578  0.12365852     0.00250
C2090       C  0.93651955  0.76586117  0.12791454    -0.11630
C2091       C  0.95295101  0.77403843  0.13677605     0.02480
C2092       C  0.95324056  0.79404643  0.14138319     0.00160
C2093       C  0.93692048  0.80551450  0.13697080    -0.11570
C2094       C  0.92033370  0.79728298  0.12839823     0.02370
H2095       H  0.93656058  0.75051001  0.12414096     0.15350
H2096       H  0.93688855  0.82084277  0.14084504     0.15350
C2097       C  0.90345630  0.80948877  0.12557055     0.37000
C2098       C  0.96950849  0.76166219  0.14026395     0.36910
N2099       N  0.88991808  0.81926208  0.12334067    -0.43340
N2100       N  0.98261545  0.75141502  0.14277106    -0.43340
C2101       C  0.85093258  0.79303718  0.03871495     0.00250
C2102       C  0.87128726  0.79125193  0.03884157    -0.11630
C2103       C  0.88087440  0.78188277  0.05423816     0.02480
C2104       C  0.87005148  0.77469295  0.07027291     0.00160
C2105       C  0.84965433  0.77627538  0.06993825    -0.11570
C2106       C  0.84005204  0.78512300  0.05430446     0.02370
H2107       H  0.87971168  0.79698484  0.02672797     0.15350
H2108       H  0.84115328  0.77094959  0.08217875     0.15350
C2109       C  0.81909058  0.78657914  0.05511896     0.37000
C2110       C  0.90169223  0.77927035  0.05284409     0.36910
N2111       N  0.80228677  0.78757286  0.05584480    -0.43340
N2112       N  0.91837288  0.77716018  0.05170563    -0.43340
C2113       C  0.12522555  0.21632940  0.92111299     0.00250
C2114       C  0.11382450  0.20434950  0.93333981    -0.11630
C2115       C  0.12192642  0.19430443  0.94915563     0.02480
C2116       C  0.14181236  0.19679580  0.95377152     0.00160
C2117       C  0.15307359  0.20925598  0.94212033    -0.11570
C2118       C  0.14523896  0.21865865  0.92581703     0.02370
H2119       H  0.09838924  0.20267395  0.93056031     0.15350
H2120       H  0.16842079  0.21116401  0.94533360     0.15350
C2121       C  0.15866815  0.22985128  0.91413140     0.37000
C2122       C  0.10936398  0.18155205  0.96022949     0.36910
N2123       N  0.16988145  0.23891805  0.90538301    -0.43340
N2124       N  0.09923124  0.17118377  0.96885530    -0.43340
C2125       C  0.19822383  0.13992144  0.95276434     0.00250
C2126       C  0.19972794  0.11953968  0.95262547    -0.11630
C2127       C  0.20886063  0.10978125  0.93712966     0.02480
C2128       C  0.21622143  0.12047526  0.92107886     0.00160
C2129       C  0.21466169  0.14088031  0.92129755    -0.11570
C2130       C  0.20591446  0.15063467  0.93693943     0.02370
H2131       H  0.19404195  0.11123332  0.96483576     0.15350
H2132       H  0.21999375  0.14926929  0.90898497     0.15350
C2133       C  0.20426244  0.17158640  0.93589708     0.37000
C2134       C  0.21108935  0.08891269  0.93845887     0.36910
N2135       N  0.20297615  0.18836866  0.93502239    -0.43340
N2136       N  0.21285955  0.07218538  0.93952506    -0.43340
C2137       C  0.14018393  0.95225413  0.19627578     0.00250
C2138       C  0.13872899  0.95193783  0.21669505    -0.11630
C2139       C  0.12922150  0.93663416  0.22632863     0.02480
C2140       C  0.12163542  0.92075399  0.21549079     0.00160
C2141       C  0.12297324  0.92125112  0.19502909    -0.11570
C2142       C  0.13185222  0.93685879  0.18538831     0.02370
H2143       H  0.14473130  0.96388747  0.22514166     0.15350
H2144       H  0.11739848  0.90918036  0.18647163     0.15350
C2145       C  0.13275354  0.93625341  0.16432106     0.37000
C2146       C  0.12686918  0.93804367  0.24724141     0.36910
N2147       N  0.13325752  0.93572922  0.14743752    -0.43340
N2148       N  0.12501772  0.93918752  0.26400395    -0.43340
C2149       C  0.19773492  0.95063603  0.14114205     0.00250
C2150       C  0.18605260  0.93637798  0.13237804    -0.11630
C2151       C  0.19420431  0.91955932  0.12425659     0.02480
C2152       C  0.21472611  0.91732356  0.12357719     0.00160
C2153       C  0.22639836  0.93186968  0.13212629    -0.11570
C2154       C  0.21812160  0.94805220  0.14137749     0.02370
H2155       H  0.17035357  0.93794550  0.13268394     0.15350
H2156       H  0.24212523  0.93060963  0.13171371     0.15350
C2157       C  0.23095527  0.96162938  0.15106005     0.37000
C2158       C  0.18093578  0.90448982  0.11797825     0.36910
N2159       N  0.24130394  0.97229814  0.15903431    -0.43340
N2160       N  0.17005223  0.89260124  0.11303571    -0.43340
C2161       C  0.95449172  0.14043730  0.19894019     0.00250
C2162       C  0.93661751  0.15025626  0.19859376    -0.11630
C2163       C  0.92004234  0.14206312  0.20716373     0.02480
C2164       C  0.92128411  0.12371646  0.21633721     0.00160
C2165       C  0.93919868  0.11390865  0.21673822    -0.11570
C2166       C  0.95580776  0.12218429  0.20820962     0.02370
H2167       H  0.93553555  0.16419678  0.19126198     0.15350
H2168       H  0.94023598  0.09988918  0.22394995     0.15350
C2169       C  0.97412874  0.11210247  0.20992308     0.37000
C2170       C  0.90179499  0.15240792  0.20574125     0.36910
N2171       N  0.98875997  0.10396523  0.21168185    -0.43340
N2172       N  0.88716272  0.16067300  0.20457263    -0.43340
C2173       C  0.95511977  0.19630520  0.14299883     0.00250
C2174       C  0.95436954  0.19673949  0.12253750    -0.11630
C2175       C  0.93895954  0.20586936  0.11280274     0.02480
C2176       C  0.92344921  0.21412362  0.12364272     0.00160
C2177       C  0.92429671  0.21365424  0.14414134    -0.11570
C2178       C  0.94000530  0.20512845  0.15384506     0.02370
H2179       H  0.96605483  0.19020365  0.11411556     0.15350
H2180       H  0.91244575  0.21970979  0.15268873     0.15350
C2181       C  0.93978268  0.20503443  0.17494048     0.37000
C2182       C  0.93989387  0.20715112  0.09177480     0.36910
N2183       N  0.93958527  0.20508871  0.19184023    -0.43340
N2184       N  0.94066741  0.20813508  0.07492072    -0.43340
C2185       C  0.14349870  0.03846667  0.19629020     0.00250
C2186       C  0.12355060  0.03774644  0.20052589    -0.11630
C2187       C  0.11437359  0.05326061  0.21010151     0.02480
C2188       C  0.12516774  0.07006671  0.21515132     0.00160
C2189       C  0.14511722  0.07078579  0.21079902    -0.11570
C2190       C  0.15433726  0.05517316  0.20146613     0.02370
H2191       H  0.11523085  0.02485199  0.19673898     0.15350
H2192       H  0.15344875  0.08371099  0.21444850     0.15350
C2193       C  0.17473891  0.05699591  0.19662856     0.37000
C2194       C  0.09408510  0.05125138  0.21530528     0.36910
N2195       N  0.19106744  0.05850699  0.19271271    -0.43340
N2196       N  0.07784730  0.04965239  0.21954994    -0.43340
C2197       C  0.04069875  0.13843166  0.19776001     0.00250
C2198       C  0.05495709  0.15003367  0.20670007    -0.11630
C2199       C  0.07137720  0.14172930  0.21535020     0.02480
C2200       C  0.07331787  0.12122556  0.21610791     0.00160
C2201       C  0.05897689  0.10960770  0.20719205    -0.11570
C2202       C  0.04303421  0.11799712  0.19766199     0.02370
H2203       H  0.05368045  0.16577914  0.20622228     0.15350
H2204       H  0.06026838  0.09386972  0.20755453     0.15350
C2205       C  0.02944795  0.10524430  0.18789924     0.37000
C2206       C  0.08648815  0.15471853  0.22212931     0.36910
N2207       N  0.01876880  0.09492817  0.17989777    -0.43340
N2208       N  0.09855305  0.16522526  0.22745102    -0.43340
C2209       C  0.21464436  0.12081005  0.07199932     0.00250
C2210       C  0.22643601  0.12853203  0.05705159    -0.11630
C2211       C  0.21825975  0.13763448  0.04070527     0.02480
C2212       C  0.19783653  0.13867300  0.03878823     0.00160
C2213       C  0.18604427  0.13068790  0.05344905    -0.11570
C2214       C  0.19414603  0.12215109  0.07007276     0.02370
H2215       H  0.24215084  0.12743138  0.05809493     0.15350
H2216       H  0.17032642  0.13180838  0.05228400     0.15350
C2217       C  0.18087740  0.11591116  0.08518734     0.37000
C2218       C  0.23116163  0.14542190  0.02598711     0.36910
N2219       N  0.16993246  0.11092702  0.09702986    -0.43340
N2220       N  0.24152398  0.15171077  0.01423594    -0.43340
C2221       C  0.19923916  0.03665727  0.14100806     0.00250
C2222       C  0.19042952  0.05499096  0.14244976    -0.11630
C2223       C  0.19910794  0.07135223  0.13403675     0.02480
C2224       C  0.21669799  0.06936071  0.12360462     0.00160
C2225       C  0.22557005  0.05102731  0.12216505    -0.11570
C2226       C  0.21694608  0.03464863  0.13079642     0.02370
H2227       H  0.17686978  0.05656185  0.15045134     0.15350
H2228       H  0.23907380  0.04949843  0.11407860     0.15350
C2229       C  0.22604530  0.01590869  0.12821647     0.37000
C2230       C  0.19011165  0.09013652  0.13693900     0.36910
N2231       N  0.23342517  0.00096408  0.12578108    -0.43340
N2232       N  0.18297763  0.10519077  0.13949421    -0.43340
C2233       C  0.07221987  0.21318841  0.12323357     0.00250
C2234       C  0.05327875  0.21596146  0.11611357    -0.11630
C2235       C  0.03737442  0.20680606  0.12511604     0.02480
C2236       C  0.04045453  0.19475622  0.14146063     0.00160
C2237       C  0.05938070  0.19198335  0.14854713    -0.11570
C2238       C  0.07526551  0.20101427  0.13950110     0.02370
H2239       H  0.05094141  0.22533938  0.10360015     0.15350
H2240       H  0.06174083  0.18265169  0.16110344     0.15350
C2241       C  0.09458756  0.19743734  0.14696892     0.37000
C2242       C  0.01803019  0.21026553  0.11766771     0.36910
N2243       N  0.11009373  0.19452972  0.15287646    -0.43340
N2244       N  0.00251243  0.21308598  0.11174821    -0.43340
C2245       C  0.14178777  0.19523897  0.03950817     0.00250
C2246       C  0.15322274  0.20226262  0.05495132    -0.11630
C2247       C  0.14467871  0.21094500  0.07134749     0.02480
C2248       C  0.12423881  0.21337670  0.07220950     0.00160
C2249       C  0.11282368  0.20640061  0.05667234    -0.11570
C2250       C  0.12136255  0.19722351  0.04052268     0.02370
H2251       H  0.16890199  0.20037531  0.05449987     0.15350
H2252       H  0.09714429  0.20824073  0.05708607     0.15350
C2253       C  0.10884636  0.19047903  0.02500930     0.37000
C2254       C  0.15718891  0.21623662  0.08744473     0.36910
N2255       N  0.09871691  0.18506884  0.01265282    -0.43340
N2256       N  0.16723630  0.22045629  0.10032980    -0.43340
C2257       C  0.92327428  0.87008430  0.77851524     0.00250
C2258       C  0.93649708  0.85954845  0.76670809    -0.11630
C2259       C  0.95214313  0.84919701  0.77476178     0.02480
C2260       C  0.95543428  0.84981531  0.79506145     0.00160
C2261       C  0.94291892  0.86091563  0.80677545    -0.11570
C2262       C  0.92696000  0.87077966  0.79893485     0.02370
H2263       H  0.93469532  0.85930817  0.75099443     0.15350
H2264       H  0.94529286  0.86147537  0.82243642     0.15350
C2265       C  0.91482782  0.88094054  0.81278142     0.37000
C2266       C  0.96469550  0.83835821  0.76177732     0.36910
N2267       N  0.90593562  0.88921093  0.82450582    -0.43340
N2268       N  0.97467476  0.82959830  0.75135201    -0.43340
C2269       C  0.87008169  0.92081128  0.77698238     0.00250
C2270       C  0.86604718  0.93766508  0.76609147    -0.11630
C2271       C  0.85648184  0.95358954  0.77468802     0.02480
C2272       C  0.85142750  0.95298279  0.79466354     0.00160
C2273       C  0.85517319  0.93604858  0.80541212    -0.11570
C2274       C  0.86383823  0.91983951  0.79661761     0.02370
H2275       H  0.87036575  0.93836548  0.75086988     0.15350
H2276       H  0.85051519  0.93518608  0.82053738     0.15350
C2277       C  0.86440763  0.90184491  0.80748063     0.37000
C2278       C  0.85230666  0.97046349  0.76285793     0.36910
N2279       N  0.86428258  0.88736935  0.81611995    -0.43340
N2280       N  0.84885100  0.98395494  0.75335981    -0.43340
C2281       C  0.87137528  0.77453895  0.92277154     0.00250
C2282       C  0.85262309  0.78215628  0.92013423    -0.11630
C2283       C  0.84312654  0.79194356  0.93528974     0.02480
C2284       C  0.85246440  0.79423677  0.95347167     0.00160
C2285       C  0.87121339  0.78662776  0.95618230    -0.11570
C2286       C  0.88065276  0.77663964  0.94102523     0.02370
H2287       H  0.84554847  0.78078163  0.90604216     0.15350
H2288       H  0.87832350  0.78821814  0.97022951     0.15350
C2289       C  0.89949349  0.76808896  0.94468518     0.37000
C2290       C  0.82417137  0.80026142  0.93156942     0.36910
N2291       N  0.91453858  0.76110102  0.94760815    -0.43340
N2292       N  0.80902740  0.80699163  0.92854827    -0.43340
C2293       C  0.92285721  0.77631401  0.87111981     0.00250
C2294       C  0.93829248  0.76476759  0.86416843    -0.11630
C2295       C  0.95449500  0.77319399  0.85503177     0.02480
C2296       C  0.95563756  0.79361832  0.85302833     0.00160
C2297       C  0.94045488  0.80520329  0.86027069    -0.11570
C2298       C  0.92402249  0.79679448  0.86893923     0.02370
H2299       H  0.93771537  0.74907911  0.86590837     0.15350
H2300       H  0.94106090  0.82088631  0.85841138     0.15350
C2301       C  0.90816797  0.80952150  0.87437128     0.37000
C2302       C  0.96992675  0.76059768  0.84824838     0.36910
N2303       N  0.89549887  0.81975822  0.87872523    -0.43340
N2304       N  0.98228880  0.75050373  0.84280392    -0.43340
C2305       C  0.77664241  0.92057700  0.86876446     0.00250
C2306       C  0.77150023  0.93958966  0.87418280    -0.11630
C2307       C  0.78031973  0.95566188  0.86518274     0.02480
C2308       C  0.79426742  0.95268642  0.85037450     0.00160
C2309       C  0.79937814  0.93367657  0.84494828    -0.11570
C2310       C  0.79076722  0.91762606  0.85411170     0.02370
H2311       H  0.76079410  0.94184113  0.88562071     0.15350
H2312       H  0.81032454  0.93139334  0.83373623     0.15350
C2313       C  0.79689998  0.89827396  0.84858288     0.37000
C2314       C  0.77518996  0.97499276  0.87166270     0.36910
N2315       N  0.80186177  0.88275588  0.84424100    -0.43340
N2316       N  0.77111389  0.99043215  0.87707189    -0.43340
C2317       C  0.77875976  0.87138917  0.92202890     0.00250
C2318       C  0.79863579  0.86678059  0.92038439    -0.11630
C2319       C  0.80866328  0.85810887  0.93590102     0.02480
C2320       C  0.79859487  0.85337541  0.95322622     0.00160
C2321       C  0.77889954  0.85832840  0.95505287    -0.11570
C2322       C  0.76909432  0.86774014  0.93986012     0.02370
H2323       H  0.80628166  0.86973571  0.90683637     0.15350
H2324       H  0.77128783  0.85524773  0.96859769     0.15350
C2325       C  0.74970346  0.87484835  0.94358990     0.37000
C2326       C  0.82903741  0.85350873  0.93340393     0.36910
N2327       N  0.73440731  0.88091172  0.94719048    -0.43340
N2328       N  0.84537276  0.84985250  0.93144572    -0.43340
C2329       C  0.86956797  0.91950683  0.21484138     0.00250
C2330       C  0.88102791  0.93609918  0.21122209    -0.11630
C2331       C  0.87307590  0.95248640  0.20194696     0.02480
C2332       C  0.85319777  0.95259383  0.19682702     0.00160
C2333       C  0.84190514  0.93591813  0.20011610    -0.11570
C2334       C  0.85005035  0.91926344  0.20846709     0.02370
H2335       H  0.89618827  0.93622591  0.21563846     0.15350
H2336       H  0.82684198  0.93563016  0.19534712     0.15350
C2337       C  0.83867345  0.90160098  0.20845533     0.37000
C2338       C  0.88543130  0.96906901  0.19813385     0.36910
N2339       N  0.82957058  0.88744179  0.20767858    -0.43340
N2340       N  0.89534327  0.98233342  0.19496145    -0.43340
C2341       C  0.95176004  0.84816372  0.19888935     0.00250
C2342       C  0.95298246  0.86795774  0.20377563    -0.11630
C2343       C  0.93735925  0.87745777  0.21287787     0.02480
C2344       C  0.91997980  0.86715629  0.21688801     0.00160
C2345       C  0.91881266  0.84732957  0.21200140    -0.11570
C2346       C  0.93447974  0.83780924  0.20302643     0.02370
H2347       H  0.96627921  0.87593326  0.20071746     0.15350
H2348       H  0.90544294  0.83938192  0.21479317     0.15350
C2349       C  0.93208062  0.81772250  0.19719186     0.37000
C2350       C  0.93974230  0.89758783  0.21852813     0.36910
N2351       N  0.93014157  0.80167377  0.19238331    -0.43340
N2352       N  0.94163747  0.91370647  0.22310845    -0.43340
C2353       C  0.19838645  0.84906771  0.95390540     0.00250
C2354       C  0.19817986  0.86950108  0.95306664    -0.11630
C2355       C  0.20716190  0.87950792  0.93764723     0.02480
C2356       C  0.21616338  0.86897561  0.92231320     0.00160
C2357       C  0.21622417  0.84852049  0.92319347    -0.11570
C2358       C  0.20769057  0.83856098  0.93879275     0.02370
H2359       H  0.19125950  0.87771613  0.96469679     0.15350
H2360       H  0.22273728  0.84017164  0.91143265     0.15350
C2361       C  0.20813796  0.81752285  0.93842880     0.37000
C2362       C  0.20746476  0.90052125  0.93839024     0.36910
N2363       N  0.20858490  0.80067420  0.93813706    -0.43340
N2364       N  0.20761088  0.91736718  0.93899526    -0.43340
C2365       C  0.19750058  0.95107813  0.85013259     0.00250
C2366       C  0.18655435  0.93424740  0.85391588    -0.11630
C2367       C  0.19511745  0.91789370  0.86254012     0.02480
C2368       C  0.21493598  0.91842946  0.86806481     0.00160
C2369       C  0.22589048  0.93530412  0.86416427    -0.11570
C2370       C  0.21737012  0.95152897  0.85518296     0.02370
H2371       H  0.17134278  0.93372319  0.84967349     0.15350
H2372       H  0.24108080  0.93591692  0.86843524     0.15350
C2373       C  0.22904625  0.96873766  0.85204205     0.37000
C2374       C  0.18346322  0.90051199  0.86473520     0.36910
N2375       N  0.23835585  0.98257438  0.84957392    -0.43340
N2376       N  0.17411866  0.88658262  0.86643646    -0.43340
C2377       C  0.92369670  0.21563714  0.86997350     0.00250
C2378       C  0.93928527  0.22696443  0.86298037    -0.11630
C2379       C  0.95523820  0.21827203  0.85355216     0.02480
C2380       C  0.95588392  0.19784864  0.85126601     0.00160
C2381       C  0.94035662  0.18656452  0.85824586    -0.11570
C2382       C  0.92423711  0.19521348  0.86719586     0.02370
H2383       H  0.93905914  0.24262988  0.86500102     0.15350
H2384       H  0.94051948  0.17090112  0.85610586     0.15350
C2385       C  0.90802429  0.18281043  0.87234621     0.37000
C2386       C  0.97098834  0.23053055  0.84691245     0.36910
N2387       N  0.89506344  0.17280357  0.87636834    -0.43340
N2388       N  0.98362842  0.24034343  0.84159180    -0.43340
C2389       C  0.87360733  0.21559509  0.92316232     0.00250
C2390       C  0.87438255  0.19515737  0.92460645    -0.11630
C2391       C  0.86596304  0.18526722  0.94035207     0.02480
C2392       C  0.85573748  0.19576592  0.95485496     0.00160
C2393       C  0.85527193  0.21618844  0.95372724    -0.11570
C2394       C  0.86439714  0.22615269  0.93836289     0.02370
H2395       H  0.88120914  0.18670945  0.91311661     0.15350
H2396       H  0.84788148  0.22444714  0.96503074     0.15350
C2397       C  0.86458461  0.24717426  0.93902502     0.37000
C2398       C  0.86722167  0.16426341  0.94058344     0.36910
N2399       N  0.86468980  0.26402209  0.93959452    -0.43340
N2400       N  0.86828663  0.14744188  0.94073856    -0.43340
C2401       C  0.85531274  0.85497340  0.30553698     0.00250
C2402       C  0.84247247  0.86069436  0.29070860    -0.11630
C2403       C  0.84927478  0.86857314  0.27313986     0.02480
C2404       C  0.86953592  0.87081656  0.26991155     0.00160
C2405       C  0.88239233  0.86522802  0.28489702    -0.11570
C2406       C  0.87552942  0.85742439  0.30253005     0.02370
H2407       H  0.82692581  0.85872026  0.29274207     0.15350
H2408       H  0.89794105  0.86720163  0.28294469     0.15350
C2409       C  0.88956157  0.85265109  0.31746011     0.37000
C2410       C  0.83484449  0.87365825  0.25877579     0.36910
N2411       N  0.90082910  0.84873695  0.32937785    -0.43340
N2412       N  0.82266217  0.87773289  0.24788528    -0.43340
C2413       C  0.85649784  0.85307526  0.69111515     0.00250
C2414       C  0.87650399  0.85702787  0.69199058    -0.11630
C2415       C  0.88479993  0.86513488  0.70884301     0.02480
C2416       C  0.87296164  0.86933858  0.72525169     0.00160
C2417       C  0.85300530  0.86507024  0.72441779    -0.11570
C2418       C  0.84475897  0.85688615  0.70764333     0.02370
H2419       H  0.88559123  0.85404167  0.67937410     0.15350
H2420       H  0.84387180  0.86789728  0.73704089     0.15350
C2421       C  0.82436265  0.85175093  0.70805661     0.37000
C2422       C  0.90534569  0.86960932  0.70865490     0.36910
N2423       N  0.80805077  0.84752893  0.70844121    -0.43340
N2424       N  0.92182288  0.87314598  0.70853947    -0.43340
C2425       C  0.12173303  0.56671090  0.72097043     0.00250
C2426       C  0.14222123  0.56618754  0.72151837    -0.11630
C2427       C  0.15272521  0.55077712  0.71335430     0.02480
C2428       C  0.14291307  0.53594471  0.70303996     0.00160
C2429       C  0.12245465  0.53614364  0.70268565    -0.11570
C2430       C  0.11183188  0.55093256  0.71203908     0.02370
H2431       H  0.15027116  0.57804715  0.72816003     0.15350
H2432       H  0.11470462  0.52446162  0.69537193     0.15350
C2433       C  0.09092191  0.54895979  0.71290781     0.37000
C2434       C  0.17356670  0.55084159  0.71579983     0.36910
N2435       N  0.07416101  0.54732802  0.71359134    -0.43340
N2436       N  0.19019122  0.55097790  0.71842809    -0.43340
C2437       C  0.07009269  0.61947433  0.71694049     0.00250
C2438       C  0.06690940  0.61615184  0.69685826    -0.11630
C2439       C  0.05050037  0.62351875  0.68724229     0.02480
C2440       C  0.03779541  0.63642608  0.69706055     0.00160
C2441       C  0.04061229  0.63951877  0.71712566    -0.11570
C2442       C  0.05593117  0.63057950  0.72723308     0.02370
H2443       H  0.07720936  0.60774831  0.68836249     0.15350
H2444       H  0.03045018  0.64861665  0.72513659     0.15350
C2445       C  0.05587913  0.63235489  0.74825155     0.37000
C2446       C  0.04703800  0.61715281  0.66744847     0.36910
N2447       N  0.05572823  0.63384118  0.76508987    -0.43340
N2448       N  0.04416568  0.61170608  0.65171043    -0.43340
C2449       C  0.12161555  0.71747354  0.56985858     0.00250
C2450       C  0.14204593  0.71632085  0.56986488    -0.11630
C2451       C  0.15212777  0.70704649  0.55474652     0.02480
C2452       C  0.14174240  0.69814720  0.53932972     0.00160
C2453       C  0.12134591  0.69920089  0.53924719    -0.11570
C2454       C  0.11125716  0.70904219  0.55408947     0.02370
H2455       H  0.15024188  0.72242507  0.58193867     0.15350
H2456       H  0.11327877  0.69268988  0.52729529     0.15350
C2457       C  0.09039287  0.71087717  0.55229537     0.37000
C2458       C  0.17312174  0.70638742  0.55585050     0.36910
N2459       N  0.07366677  0.71230947  0.55085456    -0.43340
N2460       N  0.18994120  0.70605129  0.55677433    -0.43340
C2461       C  0.07075470  0.71650665  0.62236091     0.00250
C2462       C  0.07307778  0.69682247  0.62728942    -0.11630
C2463       C  0.05815052  0.68648155  0.63650437     0.02480
C2464       C  0.04061353  0.69596419  0.64141773     0.00160
C2465       C  0.03825898  0.71565828  0.63662735    -0.11570
C2466       C  0.05297909  0.72586283  0.62681920     0.02370
H2467       H  0.08668981  0.68950016  0.62399732     0.15350
H2468       H  0.02463095  0.72290724  0.64001474     0.15350
C2469       C  0.04887238  0.74539558  0.62033092     0.37000
C2470       C  0.06159617  0.66634862  0.64122745     0.36910
N2471       N  0.04511395  0.76090371  0.61495090    -0.43340
N2472       N  0.06492566  0.65024021  0.64476476    -0.43340
C2473       C  0.07146135  0.36894166  0.71638464     0.00250
C2474       C  0.06987224  0.34853482  0.71796556    -0.11630
C2475       C  0.05417337  0.33835389  0.70983441     0.02480
C2476       C  0.03975180  0.34848703  0.69923575     0.00160
C2477       C  0.04130262  0.36878066  0.69748997    -0.11570
C2478       C  0.05669541  0.37906235  0.70608503     0.02370
H2479       H  0.08114475  0.34032125  0.72534956     0.15350
H2480       H  0.03022025  0.37675832  0.68954543     0.15350
C2481       C  0.05633675  0.39998389  0.70434378     0.37000
C2482       C  0.05370425  0.31744370  0.71210192     0.36910
N2483       N  0.05564319  0.41670909  0.70246536    -0.43340
N2484       N  0.05331978  0.30070297  0.71403218    -0.43340
C2485       C  0.12491163  0.41951830  0.71540798     0.00250
C2486       C  0.14462615  0.41790129  0.71021294    -0.11630
C2487       C  0.15453792  0.43361809  0.70177800     0.02480
C2488       C  0.14457485  0.45122269  0.69819158     0.00160
C2489       C  0.12490462  0.45285809  0.70337151    -0.11570
C2490       C  0.11514865  0.43733561  0.71230526     0.02370
H2491       H  0.15225718  0.40430320  0.71271751     0.15350
H2492       H  0.11732785  0.46650848  0.70097399     0.15350
C2493       C  0.09566331  0.44057042  0.71950136     0.37000
C2494       C  0.17471280  0.43113704  0.69632046     0.36910
N2495       N  0.08021688  0.44346496  0.72560424    -0.43340
N2496       N  0.19087215  0.42919408  0.69191844    -0.43340
C2497       C  0.92322775  0.36903035  0.71800810     0.00250
C2498       C  0.92365595  0.34854284  0.71789003    -0.11630
C2499       C  0.93904711  0.33831215  0.70924852     0.02480
C2500       C  0.95437202  0.34858283  0.70011783     0.00160
C2501       C  0.95403035  0.36902957  0.70022824    -0.11570
C2502       C  0.93885264  0.37928726  0.70926736     0.02370
H2503       H  0.91169347  0.34041684  0.72427076     0.15350
H2504       H  0.96583951  0.37705626  0.69343526     0.15350
C2505       C  0.94010877  0.40027574  0.70987523     0.37000
C2506       C  0.93823012  0.31728806  0.70922752     0.36910
N2507       N  0.94111932  0.41709826  0.71028637    -0.43340
N2508       N  0.93756965  0.30044391  0.70924514    -0.43340
C2509       C  0.87107128  0.42025860  0.71633520     0.00250
C2510       C  0.86407845  0.41776887  0.69722379    -0.11630
C2511       C  0.85488973  0.43309979  0.68738600     0.02480
C2512       C  0.85236910  0.45118913  0.69682479     0.00160
C2513       C  0.85939335  0.45374523  0.71583470    -0.11570
C2514       C  0.86902348  0.43859338  0.72548520     0.02370
H2515       H  0.86565844  0.40376573  0.69004996     0.15350
H2516       H  0.85779102  0.46778144  0.72294915     0.15350
C2517       C  0.87780100  0.44266387  0.74417067     0.37000
C2518       C  0.84759219  0.42977533  0.66788601     0.36910
N2519       N  0.88510124  0.44626202  0.75895425    -0.43340
N2520       N  0.84171763  0.42714162  0.65227067    -0.43340
C2521       C  0.07260838  0.27664765  0.62281268     0.00250
C2522       C  0.05791563  0.26477084  0.63072323    -0.11630
C2523       C  0.04181095  0.27279010  0.64031374     0.02480
C2524       C  0.03962231  0.29320257  0.64139329     0.00160
C2525       C  0.05409526  0.30513148  0.63319788    -0.11570
C2526       C  0.07068449  0.29711418  0.62440105     0.02370
H2527       H  0.05908618  0.24905761  0.62957591     0.15350
H2528       H  0.05286653  0.32083843  0.63443805     0.15350
C2529       C  0.08596800  0.31025622  0.61835332     0.37000
C2530       C  0.02792738  0.25958686  0.64891798     0.36910
N2531       N  0.09821193  0.32081480  0.61355855    -0.43340
N2532       N  0.01719722  0.24865800  0.65594278    -0.43340
C2533       C  0.07119415  0.71694274  0.37096954     0.00250
C2534       C  0.07068991  0.71606562  0.35044724    -0.11630
C2535       C  0.05518682  0.70730363  0.34055595     0.02480
C2536       C  0.03990230  0.69854747  0.35120358     0.00160
C2537       C  0.04028063  0.69937292  0.37168711    -0.11570
C2538       C  0.05549281  0.70876864  0.38160468     0.02370
H2539       H  0.08266282  0.72200953  0.34200012     0.15350
H2540       H  0.02842911  0.69297114  0.37997851     0.15350
C2541       C  0.05412438  0.71042812  0.40257890     0.37000
C2542       C  0.05576386  0.70699629  0.31947007     0.36910
N2543       N  0.05299396  0.71170800  0.41939532    -0.43340
N2544       N  0.05625204  0.70695105  0.30257704    -0.43340
C2545       C  0.12506767  0.71550919  0.42122918     0.00250
C2546       C  0.12484632  0.69501708  0.42246520    -0.11630
C2547       C  0.13305185  0.68521340  0.43838080     0.02480
C2548       C  0.14243277  0.69585338  0.45331473     0.00160
C2549       C  0.14309287  0.71618944  0.45200188    -0.11570
C2550       C  0.13432569  0.72608102  0.43646685     0.02370
H2551       H  0.11841050  0.68646233  0.41083543     0.15350
H2552       H  0.15018702  0.72449071  0.46346119     0.15350
C2553       C  0.13477541  0.74706803  0.43723470     0.37000
C2554       C  0.13209578  0.66419502  0.43863088     0.36910
N2555       N  0.13564352  0.76386739  0.43820239    -0.43340
N2556       N  0.13121485  0.64736217  0.43886036    -0.43340
C2557       C  0.04026733  0.64088850  0.29560559     0.00250
C2558       C  0.05655764  0.65218474  0.29073796    -0.11630
C2559       C  0.07291436  0.64377387  0.28202216     0.02480
C2560       C  0.07294290  0.62369147  0.27753167     0.00160
C2561       C  0.05657032  0.61236051  0.28234461    -0.11570
C2562       C  0.04028741  0.62079342  0.29137830     0.02370
H2563       H  0.05671044  0.66757219  0.29427643     0.15350
H2564       H  0.05645677  0.59694334  0.27887849     0.15350
C2565       C  0.02352466  0.60876571  0.29546742     0.37000
C2566       C  0.08981428  0.65588787  0.27875110     0.36910
N2567       N  0.01003045  0.59917924  0.29867185    -0.43340
N2568       N  0.10338095  0.66556043  0.27617740    -0.43340
C2569       C  0.86947771  0.76780661  0.37151484     0.00250
C2570       C  0.86936806  0.78460095  0.38317628    -0.11630
C2571       C  0.86166517  0.80210539  0.37610587     0.02480
C2572       C  0.85406391  0.80296871  0.35697210     0.00160
C2573       C  0.85387601  0.78605863  0.34545733    -0.11570
C2574       C  0.86124691  0.76848463  0.35266973     0.02370
H2575       H  0.87554153  0.78407198  0.39773888     0.15350
H2576       H  0.84761449  0.78652693  0.33092991     0.15350
C2577       C  0.85921129  0.75113926  0.34092666     0.37000
C2578       C  0.86221192  0.81909500  0.38853375     0.36910
N2579       N  0.85718187  0.73723498  0.33158447    -0.43340
N2580       N  0.86256402  0.83271619  0.39849412    -0.43340
C2581       C  0.92166763  0.71663262  0.36809569     0.00250
C2582       C  0.93614423  0.70819749  0.37996155    -0.11630
C2583       C  0.95233403  0.69875354  0.37183120     0.02480
C2584       C  0.95466057  0.69810395  0.35136527     0.00160
C2585       C  0.94066959  0.70706740  0.33952720    -0.11570
C2586       C  0.92420655  0.71597896  0.34754870     0.02370
H2587       H  0.93481514  0.70888722  0.39572326     0.15350
H2588       H  0.94220389  0.70645233  0.32376259     0.15350
C2589       C  0.90994219  0.72335574  0.33400501     0.37000
C2590       C  0.96642838  0.69014802  0.38485575     0.36910
N2591       N  0.89892366  0.72927419  0.32271600    -0.43340
N2592       N  0.97767860  0.68319742  0.39530726    -0.43340
C2593       C  0.86952382  0.71317939  0.41973561     0.00250
C2594       C  0.86414027  0.72458390  0.43595103    -0.11630
C2595       C  0.85561098  0.71614924  0.45249513     0.02480
C2596       C  0.85271851  0.69583185  0.45322416     0.00160
C2597       C  0.85832206  0.68436449  0.43721370    -0.11570
C2598       C  0.86633414  0.69282486  0.42043819     0.02370
H2599       H  0.86666214  0.74017726  0.43573014     0.15350
H2600       H  0.85567414  0.66878458  0.43749346     0.15350
C2601       C  0.87006434  0.68037019  0.40384153     0.37000
C2602       C  0.85037092  0.72859423  0.46868123     0.36910
N2603       N  0.87304297  0.67034971  0.39057046    -0.43340
N2604       N  0.84615198  0.73855988  0.48165212    -0.43340
C2605       C  0.86890385  0.76568816  0.62480239     0.00250
C2606       C  0.86299754  0.78124409  0.61294543    -0.11630
C2607       C  0.85480844  0.79808669  0.62104248     0.02480
C2608       C  0.85212776  0.79956134  0.64150064     0.00160
C2609       C  0.85783516  0.78389331  0.65335623    -0.11570
C2610       C  0.86611708  0.76706124  0.64522906     0.02370
H2611       H  0.86526149  0.78043271  0.59728525     0.15350
H2612       H  0.85572906  0.78477130  0.66902953     0.15350
C2613       C  0.87116359  0.75124334  0.65814526     0.37000
C2614       C  0.85018231  0.81397456  0.60803356     0.36910
N2615       N  0.87524563  0.73859391  0.66851624    -0.43340
N2616       N  0.84645260  0.82667643  0.59759150    -0.43340
C2617       C  0.85192999  0.69473264  0.54019080     0.00250
C2618       C  0.85264452  0.71512639  0.54120530    -0.11630
C2619       C  0.86117079  0.72462610  0.55718469     0.02480
C2620       C  0.86863321  0.71365396  0.57301904     0.00160
C2621       C  0.86774703  0.69320869  0.57198608    -0.11570
C2622       C  0.85974696  0.68372871  0.55574121     0.02370
H2623       H  0.84683954  0.72369482  0.52925126     0.15350
H2624       H  0.87315809  0.68453119  0.58403386     0.15350
C2625       C  0.85915595  0.66269902  0.55579619     0.37000
C2626       C  0.86274376  0.74558976  0.55645288     0.36910
N2627       N  0.85876855  0.64584638  0.55586671    -0.43340
N2628       N  0.86395059  0.76239177  0.55582771    -0.43340
C2629       C  0.92283709  0.71644812  0.62270768     0.00250
C2630       C  0.92435947  0.71623164  0.64319541    -0.11630
C2631       C  0.94039240  0.70792593  0.65259309     0.02480
C2632       C  0.95525830  0.69893125  0.64151196     0.00160
C2633       C  0.95396444  0.69926424  0.62105339    -0.11570
C2634       C  0.93821409  0.70822078  0.61159538     0.02370
H2635       H  0.91270138  0.72218389  0.65206095     0.15350
H2636       H  0.96543922  0.69267009  0.61238900     0.15350
C2637       C  0.93866093  0.70922205  0.59054111     0.37000
C2638       C  0.94065149  0.70815112  0.67368831     0.36910
N2639       N  0.93905025  0.70992029  0.57365876    -0.43340
N2640       N  0.94085725  0.70846233  0.69058487    -0.43340
C2641       C  0.92043568  0.62370056  0.71469436     0.00250
C2642       C  0.91985265  0.62713980  0.69448112    -0.11630
C2643       C  0.93561937  0.63577332  0.68480996     0.02480
C2644       C  0.95235912  0.64124147  0.69543657     0.00160
C2645       C  0.95287990  0.63809251  0.71563968    -0.11570
C2646       C  0.93726507  0.62919460  0.72528200     0.02370
H2647       H  0.90694509  0.62325597  0.68623914     0.15350
H2648       H  0.96573890  0.64221170  0.72385686     0.15350
C2649       C  0.93930339  0.62515767  0.74587818     0.37000
C2650       C  0.93390416  0.63964275  0.66415290     0.36910
N2651       N  0.94092967  0.62195616  0.76238524    -0.43340
N2652       N  0.93252398  0.64280984  0.64761615    -0.43340
C2653       C  0.87208772  0.56835313  0.71780734     0.00250
C2654       C  0.85211405  0.56501424  0.72098873    -0.11630
C2655       C  0.84262004  0.54879729  0.71317227     0.02480
C2656       C  0.85258700  0.53623486  0.70017723     0.00160
C2657       C  0.87261230  0.53922668  0.69720190    -0.11570
C2658       C  0.88253058  0.55456892  0.70642722     0.02370
H2659       H  0.84361970  0.57515038  0.72962444     0.15350
H2660       H  0.88070457  0.52922271  0.68799816     0.15350
C2661       C  0.90347719  0.55503006  0.70466882     0.37000
C2662       C  0.82279695  0.54540437  0.71932714     0.36910
N2663       N  0.92026929  0.55530957  0.70323748    -0.43340
N2664       N  0.80714981  0.54255753  0.72492684    -0.43340
C2665       C  0.77684948  0.36833807  0.56990839     0.00250
C2666       C  0.77301038  0.34851919  0.56621021    -0.11630
C2667       C  0.78060764  0.33899511  0.54981759     0.02480
C2668       C  0.79416466  0.34861696  0.53759378     0.00160
C2669       C  0.79796872  0.36841481  0.54107633    -0.11570
C2670       C  0.78891407  0.37847207  0.55644731     0.02370
H2671       H  0.76390274  0.34021114  0.57607282     0.15350
H2672       H  0.80764234  0.37629245  0.53134954     0.15350
C2673       C  0.79152874  0.39933154  0.55714113     0.37000
C2674       C  0.77355674  0.31959473  0.54577140     0.36910
N2675       N  0.79368265  0.41604750  0.55753355    -0.43340
N2676       N  0.76738480  0.30426834  0.54239278    -0.43340
C2677       C  0.77840334  0.41895800  0.62338990     0.00250
C2678       C  0.78712904  0.43342309  0.61175468    -0.11630
C2679       C  0.79625360  0.44965636  0.62015678     0.02480
C2680       C  0.79642738  0.45187736  0.64065439     0.00160
C2681       C  0.78776900  0.43742787  0.65228488    -0.11570
C2682       C  0.77909767  0.42096899  0.64393760     0.02370
H2683       H  0.78659946  0.43217881  0.59598159     0.15350
H2684       H  0.78829443  0.43869473  0.66807014     0.15350
C2685       C  0.77188330  0.40602993  0.65690610     0.37000
C2686       C  0.80480510  0.46402108  0.60736539     0.36910
N2687       N  0.76611897  0.39412916  0.66738472    -0.43340
N2688       N  0.81168959  0.47549059  0.59708238    -0.43340
C2689       C  0.77849734  0.41906197  0.36816216     0.00250
C2690       C  0.77927324  0.41983043  0.34766051    -0.11630
C2691       C  0.78774074  0.43566244  0.33796355     0.02480
C2692       C  0.79585551  0.45117981  0.34881802     0.00160
C2693       C  0.79520734  0.45040611  0.36929652    -0.11570
C2694       C  0.78646238  0.43470438  0.37900635     0.02370
H2695       H  0.77347260  0.40783971  0.33913683     0.15350
H2696       H  0.80128811  0.46229628  0.37777045     0.15350
C2697       C  0.78524650  0.43544563  0.40004968     0.37000
C2698       C  0.78864572  0.43513145  0.31689422     0.36910
N2699       N  0.78432025  0.43605237  0.41691557    -0.43340
N2700       N  0.78937683  0.43468241  0.30001411    -0.43340
C2701       C  0.77879611  0.36630903  0.41925435     0.00250
C2702       C  0.78775643  0.37777094  0.43375537    -0.11630
C2703       C  0.79702897  0.36923874  0.44985748     0.02480
C2704       C  0.79700796  0.34878073  0.45202606     0.00160
C2705       C  0.78788871  0.33735881  0.43770387    -0.11570
C2706       C  0.77928513  0.34578922  0.42124890     0.02370
H2707       H  0.78741158  0.39351702  0.43260168     0.15350
H2708       H  0.78799576  0.32164572  0.43905083     0.15350
C2709       C  0.77206853  0.33287009  0.40624789     0.37000
C2710       C  0.80594785  0.38187715  0.46414759     0.36910
N2711       N  0.76629391  0.32245134  0.39428393    -0.43340
N2712       N  0.81313616  0.39203511  0.47555150    -0.43340
C2713       C  0.77521363  0.56829127  0.37086446     0.00250
C2714       C  0.77156812  0.56481897  0.35089897    -0.11630
C2715       C  0.77940603  0.54871436  0.34113760     0.02480
C2716       C  0.79293655  0.53650108  0.35071988     0.00160
C2717       C  0.79641868  0.53963762  0.37067333    -0.11570
C2718       C  0.78722466  0.55477306  0.38091372     0.02370
H2719       H  0.76259265  0.57476240  0.34258516     0.15350
H2720       H  0.80607423  0.52989262  0.37850135     0.15350
C2721       C  0.78987115  0.55520398  0.40180547     0.37000
C2722       C  0.77302709  0.54522448  0.32134800     0.36910
N2723       N  0.79225623  0.55523126  0.41852855    -0.43340
N2724       N  0.76768600  0.54242140  0.30556693    -0.43340
C2725       C  0.77705016  0.62263181  0.42060240     0.00250
C2726       C  0.78379558  0.64182562  0.41865671    -0.11630
C2727       C  0.79298427  0.65128774  0.43428132     0.02480
C2728       C  0.79555974  0.64145075  0.45218926     0.00160
C2729       C  0.78879638  0.62229772  0.45415420    -0.11570
C2730       C  0.77933479  0.61295395  0.43864162     0.02370
H2731       H  0.78207341  0.64932843  0.40483529     0.15350
H2732       H  0.79053699  0.61479278  0.46797516     0.15350
C2733       C  0.77115828  0.59386029  0.44190105     0.37000
C2734       C  0.80037919  0.67077195  0.43135862     0.36910
N2735       N  0.76437098  0.57867550  0.44463429    -0.43340
N2736       N  0.80637555  0.68635264  0.42901045    -0.43340
C2737       C  0.77850179  0.56991495  0.62245006     0.00250
C2738       C  0.77867932  0.56903287  0.64294303    -0.11630
C2739       C  0.78691403  0.55324840  0.65280312     0.02480
C2740       C  0.79601460  0.53811610  0.64221016     0.00160
C2741       C  0.79601778  0.53897090  0.62171852    -0.11570
C2742       C  0.78702898  0.55441026  0.61179283     0.02370
H2743       H  0.77241430  0.58083624  0.65140645     0.15350
H2744       H  0.80266658  0.52726929  0.61340405     0.15350
C2745       C  0.78601049  0.55341247  0.59075774     0.37000
C2746       C  0.78600987  0.55333196  0.67382636     0.36910
N2747       N  0.78519132  0.55258164  0.57389762    -0.43340
N2748       N  0.78481370  0.55366454  0.69066214    -0.43340
C2749       C  0.77812374  0.62249094  0.57142949     0.00250
C2750       C  0.76917193  0.62137488  0.55302708    -0.11630
C2751       C  0.77768610  0.63026903  0.53668696     0.02480
C2752       C  0.79532587  0.64050028  0.53878733     0.00160
C2753       C  0.80415460  0.64176572  0.55718074    -0.11570
C2754       C  0.79568565  0.63292088  0.57349180     0.02370
H2755       H  0.75566887  0.61333826  0.55141037     0.15350
H2756       H  0.81758538  0.64990009  0.55882893     0.15350
C2757       C  0.80493673  0.63522906  0.59227857     0.37000
C2758       C  0.76847841  0.62823990  0.51785506     0.36910
N2759       N  0.81230658  0.63715115  0.60734587    -0.43340
N2760       N  0.76118510  0.62655349  0.50272127    -0.43340
C2761       C  0.14262158  0.29280251  0.53912508     0.00250
C2762       C  0.12328198  0.28652867  0.53718046    -0.11630
C2763       C  0.11382218  0.27700548  0.55261825     0.02480
C2764       C  0.12370170  0.27400579  0.57043519     0.00160
C2765       C  0.14305528  0.28028221  0.57229281    -0.11570
C2766       C  0.15254717  0.28962024  0.55685331     0.02370
H2767       H  0.11568725  0.28880548  0.52349335     0.15350
H2768       H  0.15063510  0.27825806  0.58603280     0.15350
C2769       C  0.17214683  0.29664975  0.55988717     0.37000
C2770       C  0.09427869  0.26985639  0.54964083     0.36910
N2771       N  0.18781474  0.30233784  0.56237572    -0.43340
N2772       N  0.07864730  0.26402733  0.54725472    -0.43340
C2773       C  0.14235454  0.53980673  0.29523925     0.00250
C2774       C  0.15363872  0.55636251  0.29132377    -0.11630
C2775       C  0.14528610  0.57300743  0.28311705     0.02480
C2776       C  0.12531051  0.57307798  0.27822294     0.00160
C2777       C  0.11403147  0.55647495  0.28213799    -0.11570
C2778       C  0.12235228  0.53993679  0.29065357     0.02370
H2779       H  0.16894444  0.55648759  0.29524322     0.15350
H2780       H  0.09871264  0.55635213  0.27829339     0.15350
C2781       C  0.11020090  0.52309918  0.29375084     0.37000
C2782       C  0.15736211  0.59005841  0.28081346     0.36910
N2783       N  0.10021600  0.50972160  0.29599682    -0.43340
N2784       N  0.16720906  0.60363176  0.27914932    -0.43340
C2785       C  0.21614688  0.36853404  0.42150147     0.00250
C2786       C  0.21036993  0.34903891  0.41943444    -0.11630
C2787       C  0.20135335  0.33916841  0.43485826     0.02480
C2788       C  0.19780931  0.34894930  0.45264482     0.00160
C2789       C  0.20362599  0.36839549  0.45476423    -0.11570
C2790       C  0.21307046  0.37812018  0.43948506     0.02370
H2791       H  0.21275182  0.34158762  0.40566008     0.15350
H2792       H  0.20126725  0.37580523  0.46856585     0.15350
C2793       C  0.22063250  0.39739564  0.44307121     0.37000
C2794       C  0.19521652  0.31925701  0.43185604     0.36910
N2795       N  0.22700430  0.41266992  0.44626497    -0.43340
N2796       N  0.19027357  0.30331299  0.42947680    -0.43340
C2797       C  0.21516347  0.42101010  0.37028396     0.00250
C2798       C  0.21492094  0.42195398  0.34974862    -0.11630
C2799       C  0.20655084  0.43773107  0.33992730     0.02480
C2800       C  0.19768274  0.45292965  0.35063747     0.00160
C2801       C  0.19752552  0.45192042  0.37106219    -0.11570
C2802       C  0.20633176  0.43639680  0.38093901     0.02370
H2803       H  0.22109858  0.41016454  0.34121575     0.15350
H2804       H  0.19080379  0.46356678  0.37940265     0.15350
C2805       C  0.20647373  0.43728005  0.40197166     0.37000
C2806       C  0.20668902  0.43751374  0.31882978     0.36910
N2807       N  0.20616727  0.43840443  0.41882151    -0.43340
N2808       N  0.20688099  0.43733071  0.30193089    -0.43340
C2809       C  0.19861568  0.34918496  0.53856286     0.00250
C2810       C  0.18821194  0.35162197  0.55599916    -0.11630
C2811       C  0.19695627  0.36011790  0.57233263     0.02480
C2812       C  0.21615344  0.36735011  0.57106686     0.00160
C2813       C  0.22667364  0.36478971  0.55364277    -0.11570
C2814       C  0.21811579  0.35555584  0.53747788     0.02370
H2815       H  0.17343294  0.34612209  0.55709429     0.15350
H2816       H  0.24154200  0.37003175  0.55268218     0.15350
C2817       C  0.22937994  0.35320974  0.51982256     0.37000
C2818       C  0.18653079  0.35971182  0.59064150     0.36910
N2819       N  0.23837424  0.35129057  0.50564869    -0.43340
N2820       N  0.17826746  0.35886470  0.60535206    -0.43340
C2821       C  0.21530552  0.42045466  0.62189137     0.00250
C2822       C  0.22746021  0.43425080  0.63112110    -0.11630
C2823       C  0.21978201  0.45054452  0.64082247     0.02480
C2824       C  0.19949926  0.45379026  0.64090085     0.00160
C2825       C  0.18740986  0.44055863  0.63112426    -0.11570
C2826       C  0.19492314  0.42396312  0.62197400     0.02370
H2827       H  0.24312101  0.43233670  0.63085328     0.15350
H2828       H  0.17176232  0.44276265  0.63129634     0.15350
C2829       C  0.18089402  0.41070821  0.61367732     0.37000
C2830       C  0.23310135  0.46376426  0.65034055     0.36910
N2831       N  0.16910567  0.40069700  0.60698037    -0.43340
N2832       N  0.24379241  0.47430128  0.65803052    -0.43340
C2833       C  0.21647487  0.57120712  0.36974589     0.00250
C2834       C  0.19664655  0.57240633  0.36490822    -0.11630
C2835       C  0.18709344  0.55681765  0.35586057     0.02480
C2836       C  0.19742349  0.53958287  0.35150820     0.00160
C2837       C  0.21725675  0.53837507  0.35617798    -0.11570
C2838       C  0.22678328  0.55391031  0.36541956     0.02370
H2839       H  0.18866880  0.58570438  0.36793778     0.15350
H2840       H  0.22522894  0.52513342  0.35289444     0.15350
C2841       C  0.24690346  0.55145548  0.37098751     0.37000
C2842       C  0.16695433  0.55923308  0.35028317     0.36910
N2843       N  0.26301794  0.54951311  0.37550087    -0.43340
N2844       N  0.15085712  0.56119691  0.34571143    -0.43340
C2845       C  0.21716667  0.62162327  0.42278734     0.00250
C2846       C  0.21467432  0.64192275  0.42268747    -0.11630
C2847       C  0.20570972  0.65151098  0.43829568     0.02480
C2848       C  0.19889164  0.64073837  0.45447779     0.00160
C2849       C  0.20122811  0.62044370  0.45462291    -0.11570
C2850       C  0.21047840  0.61085146  0.43908193     0.02370
H2851       H  0.21941915  0.65032526  0.41014678     0.15350
H2852       H  0.19611210  0.61210944  0.46706528     0.15350
C2853       C  0.21351237  0.59010042  0.44057611     0.37000
C2854       C  0.20282625  0.67230932  0.43685178     0.36910
N2855       N  0.21592642  0.57346372  0.44177078    -0.43340
N2856       N  0.20047064  0.68895741  0.43568333    -0.43340
C2857       C  0.21664329  0.62427033  0.57350777     0.00250
C2858       C  0.20918704  0.61269034  0.55830871    -0.11630
C2859       C  0.20016025  0.62111081  0.54205772     0.02480
C2860       C  0.19871666  0.64156467  0.54064984     0.00160
C2861       C  0.20631416  0.65315721  0.55570177    -0.11570
C2862       C  0.21491929  0.64475460  0.57217687     0.02370
H2863       H  0.21060198  0.59697590  0.55903432     0.15350
H2864       H  0.20496251  0.66885898  0.55488332     0.15350
C2865       C  0.22092014  0.65749041  0.58785824     0.37000
C2866       C  0.19310175  0.60845767  0.52676184     0.36910
N2867       N  0.22569648  0.66774131  0.60039680    -0.43340
N2868       N  0.18745807  0.59831656  0.51450015    -0.43340
C2869       C  0.21746855  0.57113357  0.62419451     0.00250
C2870       C  0.21975520  0.56879927  0.64446607    -0.11630
C2871       C  0.21195951  0.55276698  0.65430577     0.02480
C2872       C  0.20011208  0.53926972  0.64420967     0.00160
C2873       C  0.19768403  0.54154668  0.62397383    -0.11570
C2874       C  0.20670670  0.55683881  0.61384523     0.02370
H2875       H  0.22780371  0.57951406  0.65283207     0.15350
H2876       H  0.18918881  0.53094479  0.61588289     0.15350
C2877       C  0.20546683  0.55673078  0.59279552     0.37000
C2878       C  0.21692596  0.55052433  0.67463609     0.36910
N2879       N  0.20445173  0.55654751  0.57592688    -0.43340
N2880       N  0.22164317  0.54871167  0.69073925    -0.43340
C2881       C  0.07097065  0.27709722  0.36970460     0.00250
C2882       C  0.05361285  0.28029814  0.38011655    -0.11630
C2883       C  0.03790506  0.29005701  0.37139832     0.02480
C2884       C  0.03932228  0.29619796  0.35180220     0.00160
C2885       C  0.05674935  0.29330428  0.34158267    -0.11570
C2886       C  0.07268436  0.28436299  0.35051653     0.02370
H2887       H  0.05237117  0.27520644  0.39505251     0.15350
H2888       H  0.05817028  0.29879821  0.32681768     0.15350
C2889       C  0.09110833  0.28453041  0.34037402     0.37000
C2890       C  0.02042852  0.29334938  0.38265768     0.36910
N2891       N  0.10590525  0.28533475  0.33232200    -0.43340
N2892       N  0.00642748  0.29609333  0.39166918    -0.43340
C2893       C  0.12327334  0.27603637  0.42033179     0.00250
C2894       C  0.12761602  0.26483535  0.43694936    -0.11630
C2895       C  0.13681526  0.27320232  0.45319499     0.02480
C2896       C  0.14163016  0.29316143  0.45302394     0.00160
C2897       C  0.13736455  0.30433991  0.43645362    -0.11570
C2898       C  0.12854120  0.29594601  0.42008549     0.02370
H2899       H  0.12358285  0.24956514  0.43732643     0.15350
H2900       H  0.14145627  0.31960478  0.43609628     0.15350
C2901       C  0.12592321  0.30788454  0.40293131     0.37000
C2902       C  0.14047213  0.26124565  0.47012721     0.36910
N2903       N  0.12386651  0.31744091  0.38917630    -0.43340
N2904       N  0.14336028  0.25170877  0.48374304    -0.43340
C2905       C  0.07216785  0.37106304  0.27530752     0.00250
C2906       C  0.07150395  0.35065800  0.27630019    -0.11630
C2907       C  0.05610521  0.34106313  0.28558687     0.02480
C2908       C  0.04100562  0.35194802  0.29445434     0.00160
C2909       C  0.04169659  0.37235438  0.29361913    -0.11570
C2910       C  0.05690872  0.38195363  0.28392193     0.02370
H2911       H  0.08320735  0.34213505  0.26994711     0.15350
H2912       H  0.03004760  0.38082437  0.30013958     0.15350
C2913       C  0.05600332  0.40290525  0.28229360     0.37000
C2914       C  0.05656565  0.32003926  0.28623713     0.36910
N2915       N  0.05526061  0.41969171  0.28097086    -0.43340
N2916       N  0.05699368  0.30319343  0.28660624    -0.43340
C2917       C  0.12467122  0.42188989  0.27416269     0.00250
C2918       C  0.11325811  0.43527079  0.28473250    -0.11630
C2919       C  0.12169284  0.45075707  0.29494413     0.02480
C2920       C  0.14197010  0.45400594  0.29369617     0.00160
C2921       C  0.15339250  0.44094703  0.28281815    -0.11570
C2922       C  0.14510620  0.42472079  0.27360701     0.02370
H2923       H  0.09757815  0.43351181  0.28529471     0.15350
H2924       H  0.16905371  0.44291193  0.28223672     0.15350
C2925       C  0.15817969  0.41070976  0.26490073     0.37000
C2926       C  0.10908988  0.46267979  0.30686846     0.36910
N2927       N  0.16874687  0.39954293  0.25795668    -0.43340
N2928       N  0.09886478  0.47181037  0.31671285    -0.43340
C2929       C  0.92288985  0.27534912  0.36819813     0.00250
C2930       C  0.92441296  0.29576326  0.37024854    -0.11630
C2931       C  0.93991096  0.30626220  0.36207021     0.02480
C2932       C  0.95408730  0.29653492  0.35074456     0.00160
C2933       C  0.95238276  0.27636293  0.34814060    -0.11570
C2934       C  0.93728844  0.26572202  0.35681260     0.02370
H2935       H  0.91333327  0.30378252  0.37814366     0.15350
H2936       H  0.96319862  0.26870293  0.33949207     0.15350
C2937       C  0.93764242  0.24495145  0.35377812     0.37000
C2938       C  0.94052717  0.32706049  0.36522612     0.36910
N2939       N  0.93834725  0.22841356  0.35062799    -0.43340
N2940       N  0.94104894  0.34370078  0.36789856    -0.43340
C2941       C  0.87395978  0.27250450  0.42299259     0.00250
C2942       C  0.85366229  0.27490796  0.42219386    -0.11630
C2943       C  0.84348951  0.28411440  0.43724772     0.02480
C2944       C  0.85365408  0.29163759  0.45348885     0.00160
C2945       C  0.87397120  0.28943434  0.45435067    -0.11570
C2946       C  0.88413681  0.27968925  0.43944236     0.02370
H2947       H  0.84566012  0.26979389  0.40953516     0.15350
H2948       H  0.88185390  0.29494704  0.46691166     0.15350
C2949       C  0.90478273  0.27657154  0.44179619     0.37000
C2950       C  0.82266250  0.28615904  0.43523078     0.36910
N2951       N  0.92132968  0.27404176  0.44370577    -0.43340
N2952       N  0.80597030  0.28757664  0.43348879    -0.43340
C2953       C  0.92203307  0.36983908  0.27630721     0.00250
C2954       C  0.93908041  0.36633968  0.26546157    -0.11630
C2955       C  0.95544105  0.35779038  0.27418829     0.02480
C2956       C  0.95492517  0.35279164  0.29413655     0.00160
C2957       C  0.93797165  0.35630632  0.30498610    -0.11570
C2958       C  0.92150784  0.36447860  0.29623220     0.02370
H2959       H  0.93967471  0.37048651  0.25019450     0.15350
H2960       H  0.93739641  0.35207225  0.32024207     0.15350
C2961       C  0.90398798  0.36626337  0.30778857     0.37000
C2962       C  0.97279728  0.35492168  0.26262420     0.36910
N2963       N  0.88995351  0.36760995  0.31706127    -0.43340
N2964       N  0.98675599  0.35268577  0.25340798    -0.43340
C2965       C  0.85298370  0.45309109  0.29417140     0.00250
C2966       C  0.84784452  0.43412389  0.29971600    -0.11630
C2967       C  0.85636035  0.41798332  0.29060773     0.02480
C2968       C  0.87030156  0.42078980  0.27575726     0.00160
C2969       C  0.87543396  0.43976557  0.27017701    -0.11570
C2970       C  0.86682483  0.45593385  0.27924892     0.02370
H2971       H  0.83703278  0.43194249  0.31107751     0.15350
H2972       H  0.88618236  0.44191435  0.25876183     0.15350
C2973       C  0.87238273  0.47523676  0.27306233     0.37000
C2974       C  0.85046208  0.39868804  0.29655409     0.36910
N2975       N  0.87687692  0.49067954  0.26802181    -0.43340
N2976       N  0.84569047  0.38322361  0.30127217    -0.43340
C2977       C  0.87232117  0.56924380  0.27570501     0.00250
C2978       C  0.85279190  0.57137335  0.28126617    -0.11630
C2979       C  0.84287045  0.55638971  0.29079828     0.02480
C2980       C  0.85246167  0.53874077  0.29498821     0.00160
C2981       C  0.87212724  0.53663485  0.28976978    -0.11570
C2982       C  0.88205097  0.55163281  0.27998602     0.02370
H2983       H  0.84532775  0.58500982  0.27845108     0.15350
H2984       H  0.87962300  0.52313054  0.29301701     0.15350
C2985       C  0.90188304  0.54833374  0.27382722     0.37000
C2986       C  0.82320100  0.56009135  0.29707999     0.36910
N2987       N  0.91776370  0.54569012  0.26881960    -0.43340
N2988       N  0.80754198  0.56370505  0.30208883    -0.43340
C2989       C  0.92350165  0.62128421  0.27608135     0.00250
C2990       C  0.92389190  0.62221078  0.29659923    -0.11630
C2991       C  0.93933214  0.63106810  0.30653649     0.02480
C2992       C  0.95473120  0.63969505  0.29592990     0.00160
C2993       C  0.95440956  0.63885674  0.27545076    -0.11570
C2994       C  0.93920023  0.62952390  0.26549464     0.02370
H2995       H  0.91187676  0.61627022  0.30498531     0.15350
H2996       H  0.96628541  0.64523916  0.26718188     0.15350
C2997       C  0.94052514  0.62806022  0.24449842     0.37000
C2998       C  0.93851989  0.63176724  0.32760771     0.36910
N2999       N  0.94159307  0.62695987  0.22766513    -0.43340
N3000       N  0.93786737  0.63227056  0.34448967    -0.43340
C3001       C  0.92109600  0.27554168  0.62319415     0.00250
C3002       C  0.93560948  0.26395706  0.63178915    -0.11630
C3003       C  0.95138286  0.27229556  0.64163555     0.02480
C3004       C  0.95358429  0.29274620  0.64211367     0.00160
C3005       C  0.93923886  0.30438323  0.63336630    -0.11570
C3006       C  0.92285286  0.29606703  0.62448200     0.02370
H3007       H  0.93458171  0.24821364  0.63097659     0.15350
H3008       H  0.94039291  0.32012167  0.63422480     0.15350
C3009       C  0.90759934  0.30902029  0.61803948     0.37000
C3010       C  0.96481055  0.25935988  0.65126896     0.36910
N3011       N  0.89539354  0.31944774  0.61293053    -0.43340
N3012       N  0.97511043  0.24868817  0.65923445    -0.43340
C3013       C  0.87120451  0.27231513  0.56950170     0.00250
C3014       C  0.85097541  0.27507054  0.57013471    -0.11630
C3015       C  0.84112390  0.28414478  0.55483535     0.02480
C3016       C  0.85154977  0.29112367  0.53852143     0.00160
C3017       C  0.87178979  0.28833776  0.53773161    -0.11570
C3018       C  0.88162592  0.27873283  0.55287535     0.02370
H3019       H  0.84280904  0.27046694  0.58289614     0.15350
H3020       H  0.87987699  0.29337482  0.52508952     0.15350
C3021       C  0.90219516  0.27502090  0.55063021     0.37000
C3022       C  0.82040996  0.28676411  0.55682776     0.36910
N3023       N  0.91867653  0.27200763  0.54881443    -0.43340
N3024       N  0.80380332  0.28855201  0.55887863    -0.43340
C3025       C  0.71530623  0.12249532  0.57300286     0.00250
C3026       C  0.72678223  0.12802984  0.55691005    -0.11630
C3027       C  0.71850226  0.13713611  0.54062109     0.02480
C3028       C  0.69825534  0.14052609  0.54003263     0.00160
C3029       C  0.68673668  0.13496538  0.55601699    -0.11570
C3030       C  0.69506907  0.12634151  0.57254388     0.02370
H3031       H  0.74229613  0.12508593  0.55698951     0.15350
H3032       H  0.67123294  0.13799082  0.55586764     0.15350
C3033       C  0.68265232  0.12259255  0.58915704     0.37000
C3034       C  0.73101938  0.14234641  0.52448901     0.36910
N3035       N  0.67267507  0.11962612  0.60245922    -0.43340
N3036       N  0.74104731  0.14654468  0.51156571    -0.43340
C3037       C  0.71775892  0.06843805  0.62284270     0.00250
C3038       C  0.71737231  0.06734794  0.64335226    -0.11630
C3039       C  0.70883229  0.05154699  0.65300381     0.02480
C3040       C  0.69987906  0.03651208  0.64213469     0.00160
C3041       C  0.70038122  0.03740849  0.62166173    -0.11570
C3042       C  0.70950321  0.05293251  0.61197164     0.02370
H3043       H  0.72340940  0.07913980  0.65198571     0.15350
H3044       H  0.69381186  0.02578695  0.61318075     0.15350
C3045       C  0.71069458  0.05214332  0.59093349     0.37000
C3046       C  0.70877609  0.05166246  0.67409936     0.36910
N3047       N  0.71158685  0.05149442  0.57406700    -0.43340
N3048       N  0.70886997  0.05177269  0.69099875    -0.43340
C3049       C  0.57146920  0.12274222  0.71519950     0.00250
C3050       C  0.55736042  0.11127699  0.70569077    -0.11630
C3051       C  0.54149757  0.11979563  0.69607330     0.02480
C3052       C  0.53915522  0.14022717  0.69632827     0.00160
C3053       C  0.55313256  0.15167245  0.70591539    -0.11570
C3054       C  0.56934890  0.14325475  0.71490550     0.02370
H3055       H  0.55867280  0.09553844  0.70581715     0.15350
H3056       H  0.55173560  0.16740041  0.70583504     0.15350
C3057       C  0.58401362  0.15618722  0.72269923     0.37000
C3058       C  0.52769619  0.10717065  0.68643798     0.36910
N3059       N  0.59570628  0.16661188  0.72894315    -0.43340
N3060       N  0.51670784  0.09702503  0.67864246    -0.43340
C3061       C  0.64131853  0.03881914  0.69647031     0.00250
C3062       C  0.65281193  0.05390388  0.70409827    -0.11630
C3063       C  0.64430214  0.07033844  0.71267615     0.02480
C3064       C  0.62380127  0.07161256  0.71434268     0.00160
C3065       C  0.61231649  0.05648690  0.70665106    -0.11570
C3066       C  0.62085262  0.04027249  0.69763788     0.02370
H3067       H  0.66853412  0.05309952  0.70286021     0.15350
H3068       H  0.59659042  0.05720236  0.70793308     0.15350
C3069       C  0.60829716  0.02504232  0.69034838     0.37000
C3070       C  0.65696279  0.08600374  0.71878860     0.36910
N3071       N  0.59823350  0.01284001  0.68450046    -0.43340
N3072       N  0.66714298  0.09852895  0.72367156    -0.43340
C3073       C  0.71525933  0.06927272  0.36893084     0.00250
C3074       C  0.72664389  0.05342046  0.36260624    -0.11630
C3075       C  0.71824931  0.03759727  0.35278399     0.02480
C3076       C  0.69800079  0.03723615  0.34949510     0.00160
C3077       C  0.68657928  0.05292866  0.35590896    -0.11570
C3078       C  0.69499529  0.06900147  0.36522273     0.02370
H3079       H  0.74218342  0.05335941  0.36540899     0.15350
H3080       H  0.67103805  0.05290573  0.35306766     0.15350
C3081       C  0.68259496  0.08537647  0.36978554     0.37000
C3082       C  0.73062005  0.02168557  0.34676522     0.36910
N3083       N  0.67261145  0.09846788  0.37341425    -0.43340
N3084       N  0.74053320  0.00893323  0.34192875    -0.43340
C3085       C  0.69923978  0.13894249  0.45418431     0.00250
C3086       C  0.70693148  0.15002441  0.43884544    -0.11630
C3087       C  0.71525275  0.14116773  0.42247615     0.02480
C3088       C  0.71694868  0.12062374  0.42160512     0.00160
C3089       C  0.70939236  0.10949437  0.43712284    -0.11570
C3090       C  0.70036739  0.11844224  0.45319918     0.02370
H3091       H  0.70579337  0.16574415  0.43932055     0.15350
H3092       H  0.71061514  0.09375445  0.43675188     0.15350
C3093       C  0.69288718  0.10630759  0.46869302     0.37000
C3094       C  0.72082847  0.15359808  0.40639325     0.36910
N3095       N  0.68686427  0.09658180  0.48110421    -0.43340
N3096       N  0.72524731  0.16364481  0.39356889    -0.43340
C3097       C  0.62175816  0.06968327  0.27535937     0.00250
C3098       C  0.64224287  0.06888397  0.27527334    -0.11630
C3099       C  0.65228998  0.05328390  0.28367948     0.02480
C3100       C  0.64186506  0.03813104  0.29292797     0.00160
C3101       C  0.62148392  0.03899273  0.29337244    -0.11570
C3102       C  0.61138102  0.05434312  0.28453494     0.02370
H3103       H  0.65056069  0.08065851  0.26880661     0.15350
H3104       H  0.61334778  0.02737110  0.30035814     0.15350
C3105       C  0.59041132  0.05335281  0.28471673     0.37000
C3106       C  0.67331911  0.05364250  0.28316189     0.36910
N3107       N  0.57361868  0.05218462  0.28526126    -0.43340
N3108       N  0.69016280  0.05392457  0.28267854    -0.43340
C3109       C  0.77012895  0.87230556  0.37409583     0.00250
C3110       C  0.78660030  0.88414036  0.37148542    -0.11630
C3111       C  0.80393827  0.87645152  0.36389457     0.02480
C3112       C  0.80490656  0.85658244  0.35857942     0.00160
C3113       C  0.78842637  0.84477053  0.36125544    -0.11570
C3114       C  0.77114055  0.85242070  0.36887218     0.02370
H3115       H  0.78595244  0.89939365  0.37557291     0.15350
H3116       H  0.78894193  0.82956014  0.35698020     0.15350
C3117       C  0.75441909  0.83973227  0.37039972     0.37000
C3118       C  0.82066484  0.88909250  0.36226642     0.36910
N3119       N  0.74102290  0.82957126  0.37162461    -0.43340
N3120       N  0.83408200  0.89921167  0.36094494    -0.43340
C3121       C  0.71619039  0.92074517  0.36836725     0.00250
C3122       C  0.71218502  0.91922419  0.34833091    -0.11630
C3123       C  0.70330283  0.93458197  0.33826632     0.02480
C3124       C  0.69800179  0.95170935  0.34839773     0.00160
C3125       C  0.70216611  0.95330473  0.36835844    -0.11570
C3126       C  0.71157192  0.93818701  0.37827535     0.02370
H3127       H  0.71582687  0.90592072  0.34059135     0.15350
H3128       H  0.69855348  0.96662781  0.37608313     0.15350
C3129       C  0.71760401  0.94150144  0.39817359     0.37000
C3130       C  0.69911433  0.93212860  0.31774225     0.36910
N3131       N  0.72278823  0.94449939  0.41396140    -0.43340
N3132       N  0.69575763  0.93020237  0.30129494    -0.43340
C3133       C  0.71439926  0.86966216  0.42129142     0.00250
C3134       C  0.71619870  0.84927462  0.42301372    -0.11630
C3135       C  0.70781513  0.83907920  0.43861249     0.02480
C3136       C  0.69677386  0.84917846  0.45277918     0.00160
C3137       C  0.69458716  0.86939729  0.45092963    -0.11570
C3138       C  0.70335290  0.87969200  0.43563603     0.02370
H3139       H  0.72408056  0.84110767  0.41199692     0.15350
H3140       H  0.68623298  0.87735114  0.46177658     0.15350
C3141       C  0.70097164  0.90054977  0.43572764     0.37000
C3142       C  0.71041413  0.81821527  0.43931750     0.36910
N3143       N  0.69847278  0.91720043  0.43622341    -0.43340
N3144       N  0.71260306  0.80151222  0.43988657    -0.43340
C3145       C  0.37034331  0.07027180  0.71715497     0.00250
C3146       C  0.34993290  0.07006692  0.71568587    -0.11630
C3147       C  0.34011333  0.05435785  0.70723485     0.02480
C3148       C  0.35077308  0.03862952  0.69933613     0.00160
C3149       C  0.37114857  0.03872057  0.70076745    -0.11570
C3150       C  0.38095501  0.05411293  0.70995480     0.02370
H3151       H  0.34155067  0.08237057  0.72099021     0.15350
H3152       H  0.37940668  0.02651418  0.69504522     0.15350
C3153       C  0.40175252  0.05248174  0.71252736     0.37000
C3154       C  0.31911347  0.05511208  0.70643948     0.36910
N3155       N  0.41841799  0.05114866  0.71461308    -0.43340
N3156       N  0.30228303  0.05577261  0.70608792    -0.43340
C3157       C  0.42158544  0.12267337  0.71589074     0.00250
C3158       C  0.42152122  0.12456518  0.69542889    -0.11630
C3159       C  0.43721616  0.13299713  0.68547509     0.02480
C3160       C  0.45331143  0.14024779  0.69603010     0.00160
C3161       C  0.45342742  0.13851421  0.71643908    -0.11570
C3162       C  0.43798941  0.12953693  0.72638173     0.02370
H3163       H  0.40901066  0.11966072  0.68712155     0.15350
H3164       H  0.46583331  0.14387654  0.72463567     0.15350
C3165       C  0.43983562  0.12692001  0.74721693     0.37000
C3166       C  0.43602452  0.13472087  0.66448686     0.36910
N3167       N  0.44133268  0.12488736  0.76392307    -0.43340
N3168       N  0.43508286  0.13605609  0.64766830    -0.43340
C3169       C  0.36956510  0.92164339  0.71692014     0.00250
C3170       C  0.36752907  0.92155517  0.69651158    -0.11630
C3171       C  0.35894703  0.93716858  0.68671539     0.02480
C3172       C  0.35142221  0.95305071  0.69742611     0.00160
C3173       C  0.35336244  0.95323135  0.71781184    -0.11570
C3174       C  0.36274445  0.93795880  0.72757067     0.02370
H3175       H  0.37253833  0.90912369  0.68811419     0.15350
H3176       H  0.34798066  0.96559551  0.72608361     0.15350
C3177       C  0.36597863  0.93990083  0.74831212     0.37000
C3178       C  0.35777999  0.93622009  0.66568738     0.36910
N3179       N  0.36861459  0.94150015  0.76492566    -0.43340
N3180       N  0.35721661  0.93534750  0.64882515    -0.43340
C3181       C  0.42106496  0.86992441  0.71703501     0.00250
C3182       C  0.42026556  0.84979585  0.71341460    -0.11630
C3183       C  0.43563820  0.84015334  0.70414781     0.02480
C3184       C  0.45222531  0.85071609  0.69813201     0.00160
C3185       C  0.45306632  0.87082854  0.70158952    -0.11570
C3186       C  0.43780375  0.88044883  0.71117803     0.02370
H3187       H  0.40739005  0.84160149  0.71751943     0.15350
H3188       H  0.46586362  0.87896819  0.69713887     0.15350
C3189       C  0.44004140  0.90092978  0.71543287     0.37000
C3190       C  0.43361407  0.81957713  0.70017408     0.36910
N3191       N  0.44182650  0.91735095  0.71881975    -0.43340
N3192       N  0.43198970  0.80310707  0.69694485    -0.43340
C3193       C  0.27689390  0.07189797  0.62477688     0.00250
C3194       C  0.28436714  0.05666440  0.61326456    -0.11630
C3195       C  0.29336921  0.04051313  0.62180798     0.02480
C3196       C  0.29472542  0.03922923  0.64231451     0.00160
C3197       C  0.28703651  0.05427306  0.65384516    -0.11570
C3198       C  0.27850077  0.07068075  0.64532043     0.02370
H3199       H  0.28302627  0.05730897  0.59749974     0.15350
H3200       H  0.28827815  0.05350756  0.66958731     0.15350
C3201       C  0.27249655  0.08641477  0.65798236     0.37000
C3202       C  0.30051404  0.02520485  0.60922663     0.36910
N3203       N  0.26772174  0.09900262  0.66816816    -0.43340
N3204       N  0.30623130  0.01293598  0.59914032    -0.43340
C3205       C  0.77074570  0.87202057  0.62008510     0.00250
C3206       C  0.77895905  0.88046883  0.63698519    -0.11630
C3207       C  0.79397297  0.87146127  0.64750958     0.02480
C3208       C  0.80405681  0.85517499  0.63953584     0.00160
C3209       C  0.79688013  0.84776195  0.62170310    -0.11570
C3210       C  0.77970032  0.85465924  0.61313606     0.02370
H3211       H  0.77342122  0.89394562  0.64278116     0.15350
H3212       H  0.80411975  0.83595195  0.61433437     0.15350
C3213       C  0.77134999  0.84214717  0.59840140     0.37000
C3214       C  0.79708796  0.87890162  0.66698062     0.36910
N3215       N  0.76512688  0.83161815  0.58676492    -0.43340
N3216       N  0.79913333  0.88521110  0.68252644    -0.43340
C3217       C  0.71443932  0.91914473  0.62343228     0.00250
C3218       C  0.70588741  0.91638778  0.64184183    -0.11630
C3219       C  0.69691539  0.93193998  0.65161538     0.02480
C3220       C  0.69648891  0.95055184  0.64290424     0.00160
C3221       C  0.70498450  0.95330188  0.62452837    -0.11570
C3222       C  0.71414869  0.93786018  0.61487089     0.02370
H3223       H  0.70611039  0.90205812  0.64849059     0.15350
H3224       H  0.70478119  0.96764509  0.61789358     0.15350
C3225       C  0.72400550  0.94179037  0.59665260     0.37000
C3226       C  0.68764237  0.92834275  0.67020599     0.36910
N3227       N  0.73207001  0.94497815  0.58215599    -0.43340
N3228       N  0.68014587  0.92543298  0.68506497    -0.43340
C3229       C  0.70107910  0.85221723  0.53684652     0.00250
C3230       C  0.69930682  0.87258401  0.53804001    -0.11630
C3231       C  0.70908989  0.88326253  0.55251210     0.02480
C3232       C  0.72041061  0.87345292  0.56667952     0.00160
C3233       C  0.72255444  0.85316519  0.56505466    -0.11570
C3234       C  0.71347558  0.84260097  0.55020094     0.02370
H3235       H  0.69031491  0.88023862  0.52754413     0.15350
H3236       H  0.73077169  0.84529509  0.57596979     0.15350
C3237       C  0.71638528  0.82175452  0.54988955     0.37000
C3238       C  0.70753321  0.90421887  0.55211666     0.36910
N3239       N  0.71876402  0.80506789  0.54971680    -0.43340
N3240       N  0.70616584  0.92101026  0.55167554    -0.43340
C3241       C  0.56935233  0.87010378  0.71726415     0.00250
C3242       C  0.55286734  0.86468427  0.72817318    -0.11630
C3243       C  0.53698780  0.85544424  0.71920772     0.02480
C3244       C  0.53743663  0.85164192  0.69896161     0.00160
C3245       C  0.55380094  0.85716160  0.68806126    -0.11570
C3246       C  0.56978777  0.86602771  0.69700946     0.02370
H3247       H  0.55235152  0.86779904  0.74369421     0.15350
H3248       H  0.55435308  0.85394950  0.67254966     0.15350
C3249       C  0.58683118  0.86978621  0.68520549     0.37000
C3250       C  0.52015130  0.85064567  0.73089934     0.36910
N3251       N  0.60047398  0.87271205  0.67571314    -0.43340
N3252       N  0.50660743  0.84685008  0.74022310    -0.43340
C3253       C  0.62074515  0.92163461  0.71743302     0.00250
C3254       C  0.62145224  0.92213826  0.69690619    -0.11630
C3255       C  0.63007108  0.93769278  0.68694489     0.02480
C3256       C  0.63861662  0.95314069  0.69753584     0.00160
C3257       C  0.63794177  0.95273527  0.71802783    -0.11570
C3258       C  0.62890293  0.93736290  0.72801143     0.02370
H3259       H  0.61556973  0.91009735  0.68852903     0.15350
H3260       H  0.64434034  0.96460383  0.72629287     0.15350
C3261       C  0.62771965  0.93849071  0.74903528     0.37000
C3262       C  0.63076833  0.93685813  0.66587353     0.36910
N3263       N  0.62684047  0.93939918  0.76589038    -0.43340
N3264       N  0.63130264  0.93617380  0.64899392    -0.43340
C3265       C  0.62326203  0.77772669  0.57370048     0.00250
C3266       C  0.63855449  0.79078621  0.57708073    -0.11630
C3267       C  0.64783290  0.80017003  0.56148413     0.02480
C3268       C  0.64202223  0.79621553  0.54212810     0.00160
C3269       C  0.62651577  0.78336207  0.53875124    -0.11570
C3270       C  0.61705012  0.77417802  0.55439734     0.02370
H3271       H  0.64317532  0.79370087  0.59194255     0.15350
H3272       H  0.62183222  0.78049753  0.52390017     0.15350
C3273       C  0.60102013  0.76117528  0.55038673     0.37000
C3274       C  0.66287757  0.81417739  0.56579693     0.36910
N3275       N  0.58811793  0.75079523  0.54723651    -0.43340
N3276       N  0.67469270  0.82555711  0.56963151    -0.43340
C3277       C  0.57037971  0.77443637  0.62437670     0.00250
C3278       C  0.55769493  0.78588646  0.61292564    -0.11630
C3279       C  0.54198424  0.79603099  0.62120334     0.02480
C3280       C  0.53805669  0.79431168  0.64137462     0.00160
C3281       C  0.55003761  0.78224522  0.65265765    -0.11570
C3282       C  0.56606826  0.77258193  0.64460784     0.02370
H3283       H  0.56001281  0.78705888  0.59731795     0.15350
H3284       H  0.54724532  0.78077703  0.66818913     0.15350
C3285       C  0.57774236  0.76147885  0.65807584     0.37000
C3286       C  0.53015544  0.80793803  0.60853012     0.36910
N3287       N  0.58636527  0.75242688  0.66937621    -0.43340
N3288       N  0.52079056  0.81756215  0.59834229    -0.43340
C3289       C  0.54051816  0.79399730  0.35015844     0.00250
C3290       C  0.54069448  0.79255827  0.37058421    -0.11630
C3291       C  0.55626947  0.78371066  0.38034689     0.02480
C3292       C  0.57236470  0.77650084  0.36961499     0.00160
C3293       C  0.57222333  0.77819127  0.34916291    -0.11570
C3294       C  0.55651501  0.78674280  0.33940518     0.02370
H3295       H  0.52842319  0.79803214  0.37893115     0.15350
H3296       H  0.58457703  0.77302245  0.34074991     0.15350
C3297       C  0.55761220  0.78865361  0.31842198     0.37000
C3298       C  0.55493234  0.78157298  0.40128258     0.36910
N3299       N  0.55849418  0.79021513  0.30161728    -0.43340
N3300       N  0.55385910  0.77991000  0.41806558    -0.43340
C3301       C  0.64026240  0.79345413  0.45541435     0.00250
C3302       C  0.65207506  0.78531993  0.44078540    -0.11630
C3303       C  0.64399258  0.77676172  0.42411786     0.02480
C3304       C  0.62352402  0.77554694  0.42209528     0.00160
C3305       C  0.61169183  0.78358212  0.43685906    -0.11570
C3306       C  0.61984998  0.79267735  0.45328479     0.02370
H3307       H  0.66779633  0.78631341  0.44201898     0.15350
H3308       H  0.59597796  0.78269695  0.43560474     0.15350
C3309       C  0.60696199  0.80067843  0.46789747     0.37000
C3310       C  0.65714214  0.77041397  0.40890972     0.36910
N3311       N  0.59661534  0.80712152  0.47958451    -0.43340
N3312       N  0.66775439  0.76536208  0.39678101    -0.43340
C3313       C  0.36981035  0.77613502  0.42125813     0.00250
C3314       C  0.38038643  0.77934045  0.43851874    -0.11630
C3315       C  0.37163728  0.78830108  0.45470103     0.02480
C3316       C  0.35198706  0.79408918  0.45370294     0.00160
C3317       C  0.34142804  0.79089696  0.43649237    -0.11570
C3318       C  0.35020388  0.78223152  0.42024210     0.02370
H3319       H  0.39543637  0.77464889  0.43940058     0.15350
H3320       H  0.32639165  0.79565681  0.43558989     0.15350
C3321       C  0.33906472  0.78061883  0.40243242     0.37000
C3322       C  0.38280314  0.79070865  0.47238658     0.36910
N3323       N  0.33016561  0.77941827  0.38814168    -0.43340
N3324       N  0.39168675  0.79256333  0.48661705    -0.43340
C3325       C  0.42174190  0.77644177  0.36996058     0.00250
C3326       C  0.43812745  0.76521557  0.36495002    -0.11630
C3327       C  0.45432438  0.77370522  0.35582742     0.02480
C3328       C  0.45440762  0.79385136  0.35182976     0.00160
C3329       C  0.43814904  0.80510369  0.35693576    -0.11570
C3330       C  0.42178310  0.79658666  0.36561629     0.02370
H3331       H  0.43831787  0.74977707  0.36827878     0.15350
H3332       H  0.43796214  0.82052502  0.35348454     0.15350
C3333       C  0.40487780  0.80868018  0.36887839     0.37000
C3334       C  0.47088936  0.76158444  0.35125304     0.36910
N3335       N  0.39133003  0.81837135  0.37145042    -0.43340
N3336       N  0.48419130  0.75189471  0.34760600    -0.43340
C3337       C  0.36897054  0.77644589  0.57237985     0.00250
C3338       C  0.36114667  0.76485007  0.55735405    -0.11630
C3339       C  0.35177432  0.77326349  0.54125825     0.02480
C3340       C  0.35051702  0.79372744  0.53972673     0.00160
C3341       C  0.35825614  0.80530850  0.55470509    -0.11570
C3342       C  0.36705599  0.79694371  0.57107072     0.02370
H3343       H  0.36251382  0.74913314  0.55807771     0.15350
H3344       H  0.35687998  0.82103240  0.55391621     0.15350
C3345       C  0.37303880  0.80981691  0.58665142     0.37000
C3346       C  0.34406658  0.76057420  0.52632185     0.36910
N3347       N  0.37780660  0.82023204  0.59905663    -0.43340
N3348       N  0.33783153  0.75038317  0.51439540    -0.43340
C3349       C  0.42247735  0.77561645  0.62182748     0.00250
C3350       C  0.42065000  0.79530028  0.62707040    -0.11630
C3351       C  0.43577829  0.80507916  0.63653251     0.02480
C3352       C  0.45317613  0.79511529  0.64089666     0.00160
C3353       C  0.45508070  0.77543465  0.63572250    -0.11570
C3354       C  0.43995311  0.76566822  0.62608371     0.02370
H3355       H  0.40713402  0.80293079  0.62419498     0.15350
H3356       H  0.46849795  0.76777996  0.63898797     0.15350
C3357       C  0.44291254  0.74569214  0.62019595     0.37000
C3358       C  0.43268136  0.82500687  0.64259327     0.36910
N3359       N  0.44529021  0.72969410  0.61542430    -0.43340
N3360       N  0.43016916  0.84092703  0.64755871    -0.43340
C3361       C  0.29473714  0.14148516  0.53936248     0.00250
C3362       C  0.29630630  0.12118398  0.54125207    -0.11630
C3363       C  0.28731371  0.11128614  0.55671169     0.02480
C3364       C  0.27694042  0.12184642  0.57114543     0.00160
C3365       C  0.27554516  0.14219218  0.56925196    -0.11570
C3366       C  0.28398889  0.15198881  0.55349535     0.02370
H3367       H  0.30430313  0.11292553  0.53037055     0.15350
H3368       H  0.26797157  0.15062436  0.58028868     0.15350
C3369       C  0.28174383  0.17289411  0.55263562     0.37000
C3370       C  0.28845742  0.09028379  0.55685369     0.36910
N3371       N  0.27978972  0.18962119  0.55193486    -0.43340
N3372       N  0.28951171  0.07346032  0.55694634    -0.43340
C3373       C  0.54004480  0.14173475  0.29421916     0.00250
C3374       C  0.53785147  0.12229350  0.28836168    -0.11630
C3375       C  0.55289156  0.11261175  0.27849787     0.02480
C3376       C  0.57073632  0.12222306  0.27503059     0.00160
C3377       C  0.57285731  0.14170011  0.28079178    -0.11570
C3378       C  0.55766304  0.15152647  0.29019609     0.02370
H3379       H  0.52417133  0.11484561  0.29103401     0.15350
H3380       H  0.58652246  0.14917736  0.27811378     0.15350
C3381       C  0.56086266  0.17140262  0.29617491     0.37000
C3382       C  0.54919946  0.09335025  0.27093000     0.36910
N3383       N  0.56380306  0.18731540  0.30085474    -0.43340
N3384       N  0.54595476  0.07808434  0.26454617    -0.43340
C3385       C  0.57062908  0.21587390  0.37095347     0.00250
C3386       C  0.56601213  0.22109265  0.35153679    -0.11630
C3387       C  0.54958930  0.21369517  0.34191403     0.02480
C3388       C  0.53799680  0.19926838  0.35095115     0.00160
C3389       C  0.54243861  0.19395401  0.37020963    -0.11570
C3390       C  0.55806555  0.20229979  0.38037072     0.02370
H3391       H  0.57530999  0.23095659  0.34347223     0.15350
H3392       H  0.53343532  0.18325841  0.37760276     0.15350
C3393       C  0.56005339  0.19653463  0.40049885     0.37000
C3394       C  0.54515171  0.22139864  0.32281270     0.36910
N3395       N  0.56114992  0.19115888  0.41646383    -0.43340
N3396       N  0.54158512  0.22776983  0.30758933    -0.43340
C3397       C  0.62527639  0.21523419  0.42084655     0.00250
C3398       C  0.64556713  0.21276147  0.42033903    -0.11630
C3399       C  0.65550270  0.20442142  0.43613111     0.02480
C3400       C  0.64498871  0.19767473  0.45255081     0.00160
C3401       C  0.62476110  0.20036092  0.45315136    -0.11570
C3402       C  0.61498555  0.20960366  0.43780622     0.02370
H3403       H  0.65368976  0.21743060  0.40757985     0.15350
H3404       H  0.61666551  0.19585476  0.46599148     0.15350
C3405       C  0.59481620  0.21476698  0.44062936     0.37000
C3406       C  0.67642212  0.20280624  0.43493833     0.36910
N3407       N  0.57881003  0.21933713  0.44324380    -0.43340
N3408       N  0.69321228  0.20186194  0.43391350    -0.43340
C3409       C  0.35202686  0.19713177  0.45320970     0.00250
C3410       C  0.37224217  0.19992854  0.45453066    -0.11630
C3411       C  0.38245065  0.20993548  0.43985147     0.02480
C3412       C  0.37242042  0.21693458  0.42325499     0.00160
C3413       C  0.35226560  0.21390200  0.42194465    -0.11570
C3414       C  0.34206361  0.20424639  0.43668999     0.02370
H3415       H  0.37999517  0.19467543  0.46727082     0.15350
H3416       H  0.34444588  0.21883806  0.40911782     0.15350
C3417       C  0.32150038  0.20117471  0.43392517     0.37000
C3418       C  0.40298588  0.21349458  0.44255571     0.36910
N3419       N  0.30504490  0.19893308  0.43122314    -0.43340
N3420       N  0.41944557  0.21637785  0.44472494    -0.43340
C3421       C  0.42288361  0.21678014  0.37028606     0.00250
C3422       C  0.42163314  0.19661375  0.36712709    -0.11630
C3423       C  0.43653825  0.18646503  0.35763804     0.02480
C3424       C  0.45307064  0.19652282  0.35070790     0.00160
C3425       C  0.45431212  0.21672729  0.35362334    -0.11570
C3426       C  0.43956814  0.22685277  0.36356075     0.02370
H3427       H  0.40879132  0.18872931  0.37190087     0.15350
H3428       H  0.46707080  0.22454652  0.34852976     0.15350
C3429       C  0.44234046  0.24735148  0.36737783     0.37000
C3430       C  0.43397883  0.16585989  0.35460685     0.36910
N3431       N  0.44455668  0.26377861  0.37046544    -0.43340
N3432       N  0.43143638  0.14936060  0.35242414    -0.43340
C3433       C  0.36869293  0.21489029  0.57205619     0.00250
C3434       C  0.38042852  0.20703407  0.55712907    -0.11630
C3435       C  0.37217065  0.19780072  0.54084617     0.02480
C3436       C  0.35174060  0.19674772  0.53900722     0.00160
C3437       C  0.34000928  0.20455422  0.55386168    -0.11570
C3438       C  0.34821414  0.21320056  0.57042484     0.02370
H3439       H  0.39614226  0.20823770  0.55809969     0.15350
H3440       H  0.32429137  0.20330339  0.55283656     0.15350
C3441       C  0.33521553  0.21921640  0.58589399     0.37000
C3442       C  0.38497074  0.18999691  0.52604215     0.36910
N3443       N  0.32474272  0.22402178  0.59824353    -0.43340
N3444       N  0.39523787  0.18368977  0.51421002    -0.43340
C3445       C  0.45341062  0.19783351  0.64097896     0.00250
C3446       C  0.43783809  0.20422443  0.65261603    -0.11630
C3447       C  0.42133717  0.21276976  0.64424957     0.02480
C3448       C  0.42042058  0.21555160  0.62381138     0.00160
C3449       C  0.43609435  0.20926225  0.61218844    -0.11570
C3450       C  0.45245137  0.20038582  0.62055489     0.02370
H3451       H  0.43827899  0.20193232  0.66828389     0.15350
H3452       H  0.43562500  0.21144887  0.59651127     0.15350
C3453       C  0.46830137  0.19461674  0.60794296     0.37000
C3454       C  0.40518411  0.21759278  0.65688858     0.36910
N3455       N  0.48102956  0.19002581  0.59785142    -0.43340
N3456       N  0.39224117  0.22141802  0.66702696    -0.43340
C3457       C  0.37121825  0.06839529  0.27484506     0.00250
C3458       C  0.36359958  0.05308525  0.26351943    -0.11630
C3459       C  0.35407033  0.03726007  0.27230377     0.02480
C3460       C  0.35230803  0.03643541  0.29282762     0.00160
C3461       C  0.36004384  0.05161079  0.30411904    -0.11570
C3462       C  0.36909014  0.06763235  0.29539117     0.02370
H3463       H  0.36512810  0.05347257  0.24776022     0.15350
H3464       H  0.35840282  0.05128559  0.31986457     0.15350
C3465       C  0.37493009  0.08357378  0.30787361     0.37000
C3466       C  0.34674053  0.02183459  0.25999736     0.36910
N3467       N  0.37949448  0.09632448  0.31794580    -0.43340
N3468       N  0.34086813  0.00945805  0.25014214    -0.43340
C3469       C  0.42376294  0.11933522  0.27408461     0.00250
C3470       C  0.42716829  0.11609527  0.29409342    -0.11630
C3471       C  0.44324528  0.12412840  0.30366592     0.02480
C3472       C  0.45551187  0.13744750  0.29378799     0.00160
C3473       C  0.45252857  0.14038857  0.27371020    -0.11570
C3474       C  0.43741239  0.13090902  0.26369035     0.02370
H3475       H  0.41720945  0.10725904  0.30256483     0.15350
H3476       H  0.46237472  0.14977329  0.26564947     0.15350
C3477       C  0.43708442  0.13257634  0.24267725     0.37000
C3478       C  0.44678607  0.11793903  0.32349218     0.36910
N3479       N  0.43691719  0.13390304  0.22582991    -0.43340
N3480       N  0.44973657  0.11248689  0.33920064    -0.43340
C3481       C  0.27857277  0.07149951  0.36711616     0.00250
C3482       C  0.29901378  0.07016375  0.36660947    -0.11630
C3483       C  0.30838295  0.05384078  0.35869587     0.02480
C3484       C  0.29729467  0.03860527  0.35039041     0.00160
C3485       C  0.27693482  0.03993899  0.35065912    -0.11570
C3486       C  0.26751896  0.05589471  0.35923617     0.02370
H3487       H  0.30780675  0.08198811  0.37229877     0.15350
H3488       H  0.26830022  0.02820954  0.34450381     0.15350
C3489       C  0.24652766  0.05528258  0.36042170     0.37000
C3490       C  0.32940972  0.05344001  0.35884185     0.36910
N3491       N  0.22970438  0.05473265  0.36126510    -0.43340
N3492       N  0.34625415  0.05311874  0.35913992    -0.43340
C3493       C  0.27530278  0.12047218  0.42247781     0.00250
C3494       C  0.27207758  0.14048803  0.42567118    -0.11630
C3495       C  0.27972008  0.15013892  0.44188737     0.02480
C3496       C  0.29281355  0.14038801  0.45442679     0.00160
C3497       C  0.29577225  0.12031982  0.45166841    -0.11570
C3498       C  0.28654059  0.11018501  0.43645656     0.02370
H3499       H  0.26354970  0.14892419  0.41543114     0.15350
H3500       H  0.30495098  0.11236510  0.46177112     0.15350
C3501       C  0.28811154  0.08921706  0.43638324     0.37000
C3502       C  0.27332028  0.16988376  0.44530545     0.36910
N3503       N  0.28938652  0.07240769  0.43643581    -0.43340
N3504       N  0.26767253  0.18550953  0.44817148    -0.43340
C3505       C  0.37001763  0.91929027  0.27592500     0.00250
C3506       C  0.34966367  0.91918371  0.27806708    -0.11630
C3507       C  0.33989941  0.93489056  0.28663173     0.02480
C3508       C  0.35056992  0.95109956  0.29344056     0.00160
C3509       C  0.37089162  0.95127053  0.29133220    -0.11570
C3510       C  0.38064406  0.93569092  0.28244883     0.02370
H3511       H  0.34136054  0.90659024  0.27334801     0.15350
H3512       H  0.37915282  0.96375375  0.29641286     0.15350
C3513       C  0.40142722  0.93724207  0.27961753     0.37000
C3514       C  0.31905428  0.93352627  0.28915582     0.36910
N3515       N  0.41808381  0.93848269  0.27735405    -0.43340
N3516       N  0.30236216  0.93241913  0.29121758    -0.43340
C3517       C  0.42083403  0.86680731  0.27733339     0.00250
C3518       C  0.43749935  0.87789822  0.28158380    -0.11630
C3519       C  0.45383679  0.86931239  0.29027135     0.02480
C3520       C  0.45363638  0.84927227  0.29476072     0.00160
C3521       C  0.43700265  0.83819634  0.29053131    -0.11570
C3522       C  0.42058994  0.84679818  0.28210269     0.02370
H3523       H  0.43783789  0.89324315  0.27784139     0.15350
H3524       H  0.43664651  0.82285812  0.29432043     0.15350
C3525       C  0.40340457  0.83498117  0.27931224     0.37000
C3526       C  0.47088643  0.88113974  0.29369434     0.36910
N3527       N  0.38960849  0.82554402  0.27713048    -0.43340
N3528       N  0.48459777  0.89057439  0.29636420    -0.43340
C3529       C  0.27752993  0.91936370  0.36856052     0.00250
C3530       C  0.29682857  0.91785438  0.36197383    -0.11630
C3531       C  0.30611688  0.93361568  0.35297188     0.02480
C3532       C  0.29608065  0.95137079  0.35048814     0.00160
C3533       C  0.27672749  0.95289765  0.35687965    -0.11570
C3534       C  0.26746217  0.93713110  0.36604686     0.02370
H3535       H  0.30457979  0.90419347  0.36363369     0.15350
H3536       H  0.26897355  0.96652563  0.35500866     0.15350
C3537       C  0.24794760  0.93976452  0.37345117     0.37000
C3538       C  0.32563942  0.93090927  0.34556789     0.36910
N3539       N  0.23233718  0.94185643  0.37947796    -0.43340
N3540       N  0.34123202  0.92867027  0.33954644    -0.43340
C3541       C  0.27914736  0.86771848  0.41981374     0.00250
C3542       C  0.28179555  0.87847114  0.43707330    -0.11630
C3543       C  0.29067237  0.87000551  0.45342563     0.02480
C3544       C  0.29640886  0.85030299  0.45277187     0.00160
C3545       C  0.29403633  0.83968594  0.43547017    -0.11570
C3546       C  0.28602046  0.84837916  0.41888853     0.02370
H3547       H  0.27690101  0.89347309  0.43775817     0.15350
H3548       H  0.29923441  0.82478099  0.43467979     0.15350
C3549       C  0.28678950  0.83778721  0.40070812     0.37000
C3550       C  0.29345403  0.88166272  0.47075242     0.36910
N3551       N  0.28816765  0.82930422  0.38616901    -0.43340
N3552       N  0.29577032  0.89105984  0.48459409    -0.43340
C3553       C  0.57112120  0.21580388  0.62114963     0.00250
C3554       C  0.57062724  0.21477954  0.64167703    -0.11630
C3555       C  0.55498450  0.20616480  0.65156171     0.02480
C3556       C  0.53944957  0.19789442  0.64090634     0.00160
C3557       C  0.53990240  0.19873302  0.62044932    -0.11570
C3558       C  0.55532299  0.20779589  0.61054213     0.02370
H3559       H  0.58269492  0.22050647  0.65011678     0.15350
H3560       H  0.52793918  0.19257057  0.61215018     0.15350
C3561       C  0.55395614  0.20923131  0.58958767     0.37000
C3562       C  0.55570132  0.20536372  0.67262472     0.36910
N3563       N  0.55246180  0.21014762  0.57279266    -0.43340
N3564       N  0.55632139  0.20482493  0.68950223    -0.43340
C3565       C  0.64428354  0.19866493  0.53882719     0.00250
C3566       C  0.62495871  0.20485379  0.53670561    -0.11630
C3567       C  0.61514335  0.21392476  0.55218869     0.02480
C3568       C  0.62448024  0.21625673  0.57039777     0.00160
C3569       C  0.64388772  0.21017444  0.57244487    -0.11570
C3570       C  0.65384723  0.20150377  0.55683291     0.02370
H3571       H  0.61765451  0.20291276  0.52280082     0.15350
H3572       H  0.65118922  0.21199733  0.58636516     0.15350
C3573       C  0.67355249  0.19482668  0.55989857     0.37000
C3574       C  0.59599761  0.22177967  0.54864938     0.36910
N3575       N  0.68932265  0.18942696  0.56234106    -0.43340
N3576       N  0.58082034  0.22837035  0.54552629    -0.43340
C3577       C  0.62377605  0.91816872  0.27667932     0.00250
C3578       C  0.62900260  0.93408015  0.26478856    -0.11630
C3579       C  0.63798900  0.95066202  0.27270143     0.02480
C3580       C  0.64156285  0.95167788  0.29293468     0.00160
C3581       C  0.63620772  0.93597181  0.30482357    -0.11570
C3582       C  0.62769710  0.91923719  0.29693727     0.02370
H3583       H  0.62597496  0.93360335  0.24925585     0.15350
H3584       H  0.63931221  0.93651341  0.32035367     0.15350
C3585       C  0.62423782  0.90314045  0.31000238     0.37000
C3586       C  0.64283880  0.96664065  0.25990172     0.36910
N3587       N  0.62167842  0.89053109  0.32089291    -0.43340
N3588       N  0.64670768  0.97947185  0.24965817    -0.43340
C3589       C  0.57283712  0.86564487  0.27628893     0.00250
C3590       C  0.55479968  0.86582130  0.26662855    -0.11630
C3591       C  0.53832530  0.85724214  0.27519531     0.02480
C3592       C  0.53981708  0.84867757  0.29381574     0.00160
C3593       C  0.55785453  0.84828718  0.30332004    -0.11570
C3594       C  0.57438808  0.85634183  0.29456980     0.02370
H3595       H  0.55359106  0.87276432  0.25246391     0.15350
H3596       H  0.55912309  0.84113923  0.31739137     0.15350
C3597       C  0.59296337  0.85367193  0.30400930     0.37000
C3598       C  0.51999639  0.85777096  0.26491695     0.36910
N3599       N  0.60780425  0.85100835  0.31151741    -0.43340
N3600       N  0.50527748  0.85816555  0.25671830    -0.43340
C3601       C  0.27532846  0.87037777  0.56918685     0.00250
C3602       C  0.27821156  0.85012717  0.57014590    -0.11630
C3603       C  0.28726483  0.84004165  0.55490393     0.02480
C3604       C  0.29393467  0.85028326  0.53835713     0.00160
C3605       C  0.29110552  0.87047842  0.53729300    -0.11570
C3606       C  0.28161701  0.88053514  0.55235566     0.02370
H3607       H  0.27375464  0.84216990  0.58307751     0.15350
H3608       H  0.29607685  0.87836921  0.52451627     0.15350
C3609       C  0.27796975  0.90108554  0.54982449     0.37000
C3610       C  0.29042607  0.81934956  0.55706993     0.36910
N3611       N  0.27506651  0.91755915  0.54777728    -0.43340
N3612       N  0.29298977  0.80278143  0.55879545    -0.43340
C3613       C  0.27746935  0.92202282  0.62129674     0.00250
C3614       C  0.26605102  0.93749739  0.62845020    -0.11630
C3615       C  0.27457214  0.95338326  0.63806685     0.02480
C3616       C  0.29497723  0.95428327  0.64016151     0.00160
C3617       C  0.30640770  0.93913335  0.63264067    -0.11570
C3618       C  0.29791971  0.92288993  0.62374693     0.02370
H3619       H  0.25038099  0.93718232  0.62655548     0.15350
H3620       H  0.32205325  0.93961987  0.63442263     0.15350
C3621       C  0.31054771  0.90690348  0.61846380     0.37000
C3622       C  0.26210672  0.96874854  0.64522192     0.36910
N3623       N  0.32072635  0.89413609  0.61426110    -0.43340
N3624       N  0.25211236  0.98104800  0.65098639    -0.43340
C3625       C  0.30374044  0.85417649  0.85602896     0.00250
C3626       C  0.28790861  0.84209849  0.86069857    -0.11630
C3627       C  0.27080675  0.84978138  0.86871743     0.02480
C3628       C  0.26931254  0.87000863  0.87231914     0.00160
C3629       C  0.28514598  0.88210065  0.86771701    -0.11570
C3630       C  0.30229125  0.87439518  0.85974356     0.02370
H3631       H  0.28876018  0.82660612  0.85769219     0.15350
H3632       H  0.28419098  0.89760921  0.87060273     0.15350
C3633       C  0.31834952  0.88748726  0.85610352     0.37000
C3634       C  0.25477054  0.83665226  0.87237744     0.36910
N3635       N  0.33119392  0.89799647  0.85313282    -0.43340
N3636       N  0.24196322  0.82609380  0.87533581    -0.43340
C3637       C  0.35427064  0.85298435  0.80318245     0.00250
C3638       C  0.34222271  0.85671479  0.78706459    -0.11630
C3639       C  0.34973176  0.86506761  0.76999294     0.02480
C3640       C  0.36969026  0.87001598  0.76891327     0.00160
C3641       C  0.38171579  0.86624512  0.78503119    -0.11570
C3642       C  0.37423117  0.85785420  0.80205624     0.02370
H3643       H  0.32692109  0.85284415  0.78773608     0.15350
H3644       H  0.39700759  0.87016855  0.78442295     0.15350
C3645       C  0.38724087  0.85504693  0.81836648     0.37000
C3646       C  0.33676705  0.86777807  0.75363341     0.36910
N3647       N  0.39767934  0.85272008  0.83140954    -0.43340
N3648       N  0.32634612  0.86999959  0.74055656    -0.43340
C3649       C  0.85563654  0.63873772  0.80247948     0.00250
C3650       C  0.84360780  0.63271494  0.78703434    -0.11630
C3651       C  0.85141164  0.62379002  0.77040233     0.02480
C3652       C  0.87171022  0.62075782  0.76895745     0.00160
C3653       C  0.88376167  0.62678467  0.78435444    -0.11570
C3654       C  0.87594270  0.63557114  0.80107301     0.02370
H3655       H  0.82803195  0.63521012  0.78786784     0.15350
H3656       H  0.89934327  0.62436821  0.78340724     0.15350
C3657       C  0.88903404  0.64049504  0.81680963     0.37000
C3658       C  0.83831313  0.61850985  0.75477899     0.36910
N3659       N  0.89954584  0.64448410  0.82939090    -0.43340
N3660       N  0.82778111  0.61424487  0.74230560    -0.43340
C3661       C  0.85413868  0.69110056  0.85343133     0.00250
C3662       C  0.86298011  0.68962229  0.87181308    -0.11630
C3663       C  0.87190710  0.70579739  0.88043969     0.02480
C3664       C  0.87194525  0.72387476  0.87066444     0.00160
C3665       C  0.86311070  0.72538020  0.85226593    -0.11570
C3666       C  0.85416409  0.70917208  0.84362973     0.02370
H3667       H  0.86316572  0.67570113  0.87928942     0.15350
H3668       H  0.86294783  0.73930711  0.84480546     0.15350
C3669       C  0.84454606  0.71153972  0.82504934     0.37000
C3670       C  0.88147859  0.70338760  0.89904402     0.36910
N3671       N  0.83675106  0.71342358  0.81019898    -0.43340
N3672       N  0.88922411  0.70149631  0.91391868    -0.43340
C3673       C  0.77229608  0.61920550  0.87208851     0.00250
C3674       C  0.77103962  0.62639795  0.85293175    -0.11630
C3675       C  0.78695517  0.63557747  0.84407682     0.02480
C3676       C  0.80454829  0.63776558  0.85446478     0.00160
C3677       C  0.80586526  0.63062078  0.87359221    -0.11570
C3678       C  0.79000640  0.62124594  0.88239736     0.02370
H3679       H  0.75745591  0.62512245  0.84496678     0.15350
H3680       H  0.81945087  0.63207080  0.88152615     0.15350
C3681       C  0.79251757  0.61324788  0.90172110     0.37000
C3682       C  0.78471704  0.64315657  0.82453897     0.36910
N3683       N  0.79450292  0.60683442  0.91721205    -0.43340
N3684       N  0.78296799  0.64924068  0.80888517    -0.43340
C3685       C  0.71755395  0.57062277  0.86920611     0.00250
C3686       C  0.69709786  0.57042881  0.86844981    -0.11630
C3687       C  0.68692185  0.55478672  0.86022062     0.02480
C3688       C  0.69716138  0.53920520  0.85148892     0.00160
C3689       C  0.71757888  0.53942821  0.85190413    -0.11570
C3690       C  0.72779205  0.55459575  0.86105967     0.02370
H3691       H  0.68888845  0.58258222  0.87431938     0.15350
H3692       H  0.72560062  0.52735733  0.84557801     0.15350
C3693       C  0.74866458  0.55268187  0.86268742     0.37000
C3694       C  0.66595570  0.55536518  0.86089787     0.36910
N3695       N  0.76539333  0.55110985  0.86394860    -0.43340
N3696       N  0.64916773  0.55604042  0.86193239    -0.43340
C3697       C  0.70253777  0.64024428  0.95553271     0.00250
C3698       C  0.69975068  0.62011936  0.95302427    -0.11630
C3699       C  0.70943708  0.60977458  0.93823379     0.02480
C3700       C  0.72102606  0.61984961  0.92434428     0.00160
C3701       C  0.72416987  0.63992767  0.92734020    -0.11570
C3702       C  0.71601010  0.64982625  0.94321792     0.02370
H3703       H  0.69030338  0.61227943  0.96299958     0.15350
H3704       H  0.73297370  0.64822136  0.91719223     0.15350
C3705       C  0.72215010  0.66968086  0.94649431     0.37000
C3706       C  0.70791020  0.58880264  0.93849815     0.36910
N3707       N  0.72744053  0.68546262  0.94920985    -0.43340
N3708       N  0.70665852  0.57199380  0.93881466    -0.43340
C3709       C  0.57160483  0.71499238  0.12290593     0.00250
C3710       C  0.55291670  0.71637987  0.11472322    -0.11630
C3711       C  0.53691913  0.70732145  0.12371218     0.02480
C3712       C  0.53959954  0.69683703  0.14118187     0.00160
C3713       C  0.55826943  0.69534171  0.14925552    -0.11570
C3714       C  0.57427343  0.70410182  0.14015100     0.02370
H3715       H  0.55084071  0.72460507  0.10137637     0.15350
H3716       H  0.56039151  0.68697363  0.16251900     0.15350
C3717       C  0.59341301  0.70091890  0.14822940     0.37000
C3718       C  0.51787118  0.70926497  0.11504802     0.36910
N3719       N  0.60874733  0.69808706  0.15460047    -0.43340
N3720       N  0.50258340  0.71082047  0.10813714    -0.43340
C3721       C  0.62155361  0.71543965  0.06972873     0.00250
C3722       C  0.62331833  0.69505491  0.06937024    -0.11630
C3723       C  0.63203285  0.68544693  0.05360073     0.02480
C3724       C  0.63968679  0.69628330  0.03782167     0.00160
C3725       C  0.63784302  0.71664616  0.03803076    -0.11570
C3726       C  0.62857411  0.72623904  0.05358092     0.02370
H3727       H  0.61819649  0.68654443  0.08168600     0.15350
H3728       H  0.64342469  0.72507420  0.02585743     0.15350
C3729       C  0.62585315  0.74704564  0.05220972     0.37000
C3730       C  0.63355477  0.66448965  0.05446908     0.36910
N3731       N  0.62364905  0.76371794  0.05109572    -0.43340
N3732       N  0.63454979  0.64768664  0.05526014    -0.43340
C3733       C  0.71902317  0.57074487  0.12378813     0.00250
C3734       C  0.71273984  0.55475905  0.11259536    -0.11630
C3735       C  0.70365736  0.53870819  0.12139289     0.02480
C3736       C  0.70103157  0.53829852  0.14184465     0.00160
C3737       C  0.70753500  0.55408208  0.15306899    -0.11570
C3738       C  0.71613036  0.57034317  0.14427354     0.02370
H3739       H  0.71494514  0.55479266  0.09691165     0.15350
H3740       H  0.70518594  0.55404714  0.16874207     0.15350
C3741       C  0.72074767  0.58682477  0.15656153     0.37000
C3742       C  0.69758535  0.52266823  0.10917016     0.36910
N3743       N  0.72443661  0.60001887  0.16642014    -0.43340
N3744       N  0.69270287  0.50981025  0.09938893    -0.43340
C3745       C  0.69831785  0.64170101  0.03973274     0.00250
C3746       C  0.68690574  0.63324756  0.05444812    -0.11630
C3747       C  0.69541579  0.62449769  0.07080906     0.02480
C3748       C  0.71596259  0.62315101  0.07226514     0.00160
C3749       C  0.72736040  0.63137087  0.05725417    -0.11570
C3750       C  0.71877917  0.64085693  0.04131091     0.02370
H3751       H  0.67118964  0.63408273  0.05349877     0.15350
H3752       H  0.74309909  0.63035346  0.05790809     0.15350
C3753       C  0.73131631  0.64915055  0.02655256     0.37000
C3754       C  0.68258654  0.61811371  0.08625930     0.36910
N3755       N  0.74136713  0.65586040  0.01476368    -0.43340
N3756       N  0.67222211  0.61300001  0.09857147    -0.43340
C3757       C  0.37073862  0.71469969  0.07056609     0.00250
C3758       C  0.35057867  0.71731197  0.06796045    -0.11630
C3759       C  0.34080536  0.70960861  0.05180883     0.02480
C3760       C  0.35080435  0.69750573  0.03844273     0.00160
C3761       C  0.37095791  0.69491334  0.04085997    -0.11570
C3762       C  0.38105103  0.70385707  0.05626693     0.02370
H3763       H  0.34221089  0.72546302  0.07861800     0.15350
H3764       H  0.37900458  0.68625814  0.03033132     0.15350
C3765       C  0.40202088  0.70239418  0.05628701     0.37000
C3766       C  0.32061911  0.71484445  0.04936165     0.36910
N3767       N  0.41882984  0.70118890  0.05623104    -0.43340
N3768       N  0.30463745  0.71975456  0.04736562    -0.43340
C3769       C  0.42008271  0.71277481  0.12536633     0.00250
C3770       C  0.43638933  0.72435928  0.12988083    -0.11630
C3771       C  0.45286028  0.71634207  0.13882216     0.02480
C3772       C  0.45336942  0.69627629  0.14303124     0.00160
C3773       C  0.43711849  0.68468305  0.13862424    -0.11570
C3774       C  0.42043200  0.69277004  0.13018369     0.02370
H3775       H  0.43635006  0.73972067  0.12619606     0.15350
H3776       H  0.43726477  0.66931613  0.14231070     0.15350
C3777       C  0.40361096  0.68041417  0.12756256     0.37000
C3778       C  0.46926885  0.72884650  0.14291110     0.36910
N3779       N  0.39013462  0.67049368  0.12552671    -0.43340
N3780       N  0.48242745  0.73886137  0.14618557    -0.43340
C3781       C  0.37265544  0.76844240  0.87100836     0.00250
C3782       C  0.37087585  0.78530786  0.88247280    -0.11630
C3783       C  0.36232772  0.80221131  0.87490917     0.02480
C3784       C  0.35522471  0.80233811  0.85556564     0.00160
C3785       C  0.35700933  0.78546445  0.84411690    -0.11570
C3786       C  0.36554027  0.76857602  0.85166698     0.02370
H3787       H  0.37634926  0.78530367  0.89732411     0.15350
H3788       H  0.35144836  0.78541366  0.82929616     0.15350
C3789       C  0.36609763  0.75135218  0.83954698     0.37000
C3790       C  0.36162444  0.81941028  0.88703738     0.36910
N3791       N  0.36653409  0.73753173  0.82986704    -0.43340
N3792       N  0.36106172  0.83321542  0.89673084    -0.43340
C3793       C  0.36944890  0.71500807  0.92056585     0.00250
C3794       C  0.38087623  0.70659169  0.93536279    -0.11630
C3795       C  0.37228188  0.69720958  0.95136982     0.02480
C3796       C  0.35179835  0.69651039  0.95304381     0.00160
C3797       C  0.34038209  0.70505712  0.93840174    -0.11570
C3798       C  0.34891824  0.71391869  0.92213166     0.02370
H3799       H  0.39662332  0.70739937  0.93446601     0.15350
H3800       H  0.32463036  0.70420611  0.93931608     0.15350
C3801       C  0.33615353  0.72077210  0.90686243     0.37000
C3802       C  0.38484143  0.68882538  0.96601615     0.36910
N3803       N  0.32587058  0.72628356  0.89468713    -0.43340
N3804       N  0.39493095  0.68205831  0.97770679    -0.43340
C3805       C  0.42151907  0.71431534  0.86896313     0.00250
C3806       C  0.42134446  0.71152020  0.84864089    -0.11630
C3807       C  0.43696914  0.70251569  0.83908711     0.02480
C3808       C  0.45322851  0.69610067  0.84991955     0.00160
C3809       C  0.45339656  0.69875203  0.87023139    -0.11570
C3810       C  0.43784696  0.70793832  0.87977840     0.02370
H3811       H  0.40878498  0.71610301  0.84022841     0.15350
H3812       H  0.46588040  0.69392855  0.87862444     0.15350
C3813       C  0.43936696  0.71128525  0.90054431     0.37000
C3814       C  0.43549883  0.69913933  0.81831355     0.36910
N3815       N  0.44057413  0.71397479  0.91718516    -0.43340
N3816       N  0.43430166  0.69634138  0.80168884    -0.43340
C3817       C  0.27572790  0.62020198  0.06978978     0.00250
C3818       C  0.27488656  0.64059479  0.06827403    -0.11630
C3819       C  0.28303720  0.65042270  0.05241068     0.02480
C3820       C  0.29350052  0.64001049  0.03800846     0.00160
C3821       C  0.29432756  0.61961276  0.03933887    -0.11570
C3822       C  0.28511433  0.60963551  0.05467626     0.02370
H3823       H  0.26792214  0.64908323  0.07966605     0.15350
H3824       H  0.30181255  0.61137971  0.02808015     0.15350
C3825       C  0.28481591  0.58862356  0.05392371     0.37000
C3826       C  0.28032416  0.67122702  0.05156841     0.36910
N3827       N  0.28458962  0.57177974  0.05327174    -0.43340
N3828       N  0.27751458  0.68781869  0.05100264    -0.43340
C3829       C  0.69794271  0.34915462  0.04091421     0.00250
C3830       C  0.71735284  0.35523646  0.03932295    -0.11630
C3831       C  0.72669650  0.36436101  0.05503573     0.02480
C3832       C  0.71665207  0.36713594  0.07285406     0.00160
C3833       C  0.69725108  0.36090833  0.07444199    -0.11570
C3834       C  0.68786941  0.35193547  0.05867744     0.02370
H3835       H  0.72509064  0.35318836  0.02565462     0.15350
H3836       H  0.68951582  0.36281539  0.08813083     0.15350
C3837       C  0.66822043  0.34488682  0.06135419     0.37000
C3838       C  0.74630660  0.37145342  0.05227313     0.36910
N3839       N  0.65252460  0.33913332  0.06352865    -0.43340
N3840       N  0.76199737  0.37721333  0.05009086    -0.43340
C3841       C  0.71867922  0.42063599  0.12296956     0.00250
C3842       C  0.71878324  0.42194731  0.14346079    -0.11630
C3843       C  0.71059459  0.43789960  0.15314020     0.02480
C3844       C  0.70163449  0.45290941  0.14230457     0.00160
C3845       C  0.70156219  0.45173523  0.12183861    -0.11570
C3846       C  0.71021320  0.43598733  0.11211013     0.02370
H3847       H  0.72497183  0.41022965  0.15205034     0.15350
H3848       H  0.69489666  0.46329948  0.11338588     0.15350
C3849       C  0.71069466  0.43637447  0.09103229     0.37000
C3850       C  0.71085618  0.43795740  0.17423433     0.36910
N3851       N  0.71099656  0.43670196  0.07413703    -0.43340
N3852       N  0.71113326  0.43800450  0.19113201    -0.43340
C3853       C  0.62307084  0.27521416  0.07127620     0.00250
C3854       C  0.64348178  0.27648223  0.07097452    -0.11630
C3855       C  0.65328898  0.28536761  0.05543547     0.02480
C3856       C  0.64263305  0.29333845  0.03970932     0.00160
C3857       C  0.62222865  0.29227259  0.04004819    -0.11570
C3858       C  0.61241194  0.28314612  0.05550259     0.02370
H3859       H  0.65182788  0.27075211  0.08311612     0.15350
H3860       H  0.61392988  0.29829480  0.02801794     0.15350
C3861       C  0.59147885  0.28150523  0.05440262     0.37000
C3862       C  0.67424405  0.28689123  0.05650993     0.36910
N3863       N  0.57469978  0.28021901  0.05352851    -0.43340
N3864       N  0.69102573  0.28814229  0.05739650    -0.43340
C3865       C  0.71672623  0.36914451  0.92200557     0.00250
C3866       C  0.71205943  0.34925906  0.92093317    -0.11630
C3867       C  0.70317908  0.33971351  0.93662243     0.02480
C3868       C  0.69871489  0.35011685  0.95384176     0.00160
C3869       C  0.70318377  0.37001753  0.95494402    -0.11570
C3870       C  0.71233821  0.37953369  0.93930729     0.02370
H3871       H  0.71507944  0.34120982  0.90763119     0.15350
H3872       H  0.69985220  0.37803961  0.96818618     0.15350
C3873       C  0.71774703  0.39971895  0.94167811     0.37000
C3874       C  0.69793911  0.31945244  0.93432514     0.36910
N3875       N  0.72211993  0.41589077  0.94357046    -0.43340
N3876       N  0.69365997  0.30324968  0.93247121    -0.43340
C3877       C  0.71577758  0.42038454  0.86978656     0.00250
C3878       C  0.72705914  0.43642646  0.86377193    -0.11630
C3879       C  0.71841030  0.45269784  0.85489532     0.02480
C3880       C  0.69804743  0.45328052  0.85225212     0.00160
C3881       C  0.68679618  0.43736853  0.85833299    -0.11570
C3882       C  0.69541453  0.42088578  0.86662720     0.02370
H3883       H  0.74266478  0.43632527  0.86615329     0.15350
H3884       H  0.67121456  0.43752687  0.85594279     0.15350
C3885       C  0.68307237  0.40432968  0.87070843     0.37000
C3886       C  0.73063080  0.46884148  0.84920128     0.36910
N3887       N  0.67315780  0.39107971  0.87393841    -0.43340
N3888       N  0.74040974  0.48180213  0.84465113    -0.43340
C3889       C  0.57116584  0.62124476  0.77453136     0.00250
C3890       C  0.57033603  0.62069994  0.79508174    -0.11630
C3891       C  0.55497993  0.62931194  0.80542046     0.02480
C3892       C  0.54006257  0.63912520  0.79523395     0.00160
C3893       C  0.54076630  0.63964936  0.77475383    -0.11570
C3894       C  0.55591228  0.63068694  0.76436725     0.02370
H3895       H  0.58200699  0.61385021  0.80322007     0.15350
H3896       H  0.52924730  0.64692825  0.76676033     0.15350
C3897       C  0.55489448  0.63105859  0.74333788     0.37000
C3898       C  0.55543826  0.62854657  0.82649386     0.36910
N3899       N  0.55374192  0.63168859  0.72649879    -0.43340
N3900       N  0.55582217  0.62788271  0.84337629    -0.43340
C3901       C  0.62264250  0.56952467  0.77452842     0.00250
C3902       C  0.61914463  0.56650115  0.79458097    -0.11630
C3903       C  0.62653210  0.55028866  0.80444961     0.02480
C3904       C  0.63934747  0.53733914  0.79480765     0.00160
C3905       C  0.64280127  0.54013814  0.77476153    -0.11570
C3906       C  0.63411280  0.55553741  0.76447484     0.02370
H3907       H  0.61053865  0.57686795  0.80282847     0.15350
H3908       H  0.65200270  0.52994337  0.76691904     0.15350
C3909       C  0.63656314  0.55585367  0.74353740     0.37000
C3910       C  0.62017863  0.54730419  0.82432148     0.36910
N3911       N  0.63859031  0.55601401  0.72675609    -0.43340
N3912       N  0.61446730  0.54479816  0.84002434    -0.43340
C3913       C  0.36801333  0.57022171  0.77822904     0.00250
C3914       C  0.36621243  0.55261682  0.76795745    -0.11630
C3915       C  0.35761152  0.53631330  0.77678192     0.02480
C3916       C  0.35121576  0.53744454  0.79633884     0.00160
C3917       C  0.35274749  0.55510793  0.80645573    -0.11570
C3918       C  0.36058638  0.57157456  0.79740204     0.02370
H3919       H  0.37160491  0.55161081  0.75309638     0.15350
H3920       H  0.34707884  0.55622726  0.82121390     0.15350
C3921       C  0.35937795  0.59001842  0.80745977     0.37000
C3922       C  0.35583865  0.51851997  0.76567437     0.36910
N3923       N  0.35788388  0.60482749  0.81540139    -0.43340
N3924       N  0.35435754  0.50427626  0.75674869    -0.43340
C3925       C  0.45474334  0.63830815  0.79532419     0.00250
C3926       C  0.44084516  0.62941765  0.80733553    -0.11630
C3927       C  0.42411277  0.62081536  0.79957471     0.02480
C3928       C  0.42117652  0.62036127  0.77905028     0.00160
C3929       C  0.43555922  0.62877877  0.76699710    -0.11570
C3930       C  0.45202230  0.63793761  0.77490578     0.02370
H3931       H  0.44265642  0.62988992  0.82307347     0.15350
H3932       H  0.43399947  0.62823550  0.75125704     0.15350
C3933       C  0.46598892  0.64654623  0.76170147     0.37000
C3934       C  0.41011785  0.61349232  0.81346199     0.36910
N3935       N  0.47714030  0.65350031  0.75110989    -0.43340
N3936       N  0.39948006  0.60758880  0.82515180    -0.43340
C3937       C  0.42473569  0.36889934  0.77514433     0.00250
C3938       C  0.42453989  0.34851346  0.77694228    -0.11630
C3939       C  0.43981632  0.33854007  0.78597169     0.02480
C3940       C  0.45553438  0.34901029  0.79418580     0.00160
C3941       C  0.45587591  0.36936591  0.79238590    -0.11570
C3942       C  0.44094165  0.37930618  0.78258066     0.02370
H3943       H  0.41222041  0.34026005  0.77149144     0.15350
H3944       H  0.46812288  0.37748520  0.79820058     0.15350
C3945       C  0.44313642  0.40000378  0.77958610     0.37000
C3946       C  0.43865823  0.31755381  0.78690110     0.36910
N3947       N  0.44493795  0.41658566  0.77715195    -0.43340
N3948       N  0.43768958  0.30073158  0.78733858    -0.43340
C3949       C  0.37269426  0.42049430  0.77702489     0.00250
C3950       C  0.37203387  0.42111450  0.79755868    -0.11630
C3951       C  0.36352256  0.43678633  0.80747041     0.02480
C3952       C  0.35482441  0.45207430  0.79682920     0.00160
C3953       C  0.35548717  0.45158862  0.77636820    -0.11570
C3954       C  0.36463664  0.43627609  0.76642866     0.02370
H3955       H  0.37786964  0.40911228  0.80599364     0.15350
H3956       H  0.34903820  0.46339240  0.76808811     0.15350
C3957       C  0.36604338  0.43760634  0.74542719     0.37000
C3958       C  0.36322476  0.43633281  0.82855720     0.36910
N3959       N  0.36706695  0.43869730  0.72859234    -0.43340
N3960       N  0.36308163  0.43600116  0.84545345    -0.43340
C3961       C  0.57142602  0.36846158  0.77613529     0.00250
C3962       C  0.57422911  0.36025580  0.79467006    -0.11630
C3963       C  0.55916538  0.35022667  0.80406105     0.02480
C3964       C  0.54088390  0.34838554  0.79489847     0.00160
C3965       C  0.53803783  0.35650171  0.77633621    -0.11570
C3966       C  0.55313213  0.36661082  0.76694969     0.02370
H3967       H  0.58834837  0.36141447  0.80166379     0.15350
H3968       H  0.52392617  0.35524323  0.76935201     0.15350
C3969       C  0.54936876  0.37554573  0.74826213     0.37000
C3970       C  0.56301735  0.34126375  0.82274113     0.36910
N3971       N  0.54636537  0.38281925  0.73333053    -0.43340
N3972       N  0.56614525  0.33397928  0.83764300    -0.43340
C3973       C  0.62289826  0.42022711  0.77686785     0.00250
C3974       C  0.62428831  0.42051954  0.79734941    -0.11630
C3975       C  0.63285766  0.43619674  0.80719643     0.02480
C3976       C  0.64093708  0.45183972  0.79651441     0.00160
C3977       C  0.63965106  0.45161388  0.77607004    -0.11570
C3978       C  0.63038285  0.43627326  0.76623147     0.02370
H3979       H  0.61881331  0.40832147  0.80577798     0.15350
H3980       H  0.64547590  0.46374100  0.76776291     0.15350
C3981       C  0.62799588  0.43791786  0.74535109     0.37000
C3982       C  0.63350613  0.43552418  0.82826109     0.36910
N3983       N  0.62609155  0.43926819  0.72861716    -0.43340
N3984       N  0.63374041  0.43491522  0.84514507    -0.43340
C3985       C  0.62316181  0.71481588  0.92046068     0.00250
C3986       C  0.64308627  0.71058138  0.91925811    -0.11630
C3987       C  0.65277451  0.70125291  0.93455544     0.02480
C3988       C  0.64254956  0.69588610  0.95161026     0.00160
C3989       C  0.62252631  0.69988346  0.95280689    -0.11570
C3990       C  0.61282308  0.70943260  0.93749553     0.02370
H3991       H  0.65109246  0.71434353  0.90612041     0.15350
H3992       H  0.61455448  0.69592159  0.96589732     0.15350
C3993       C  0.59251449  0.71427284  0.93994559     0.37000
C3994       C  0.67301601  0.69655456  0.93179392     0.36910
N3995       N  0.57624899  0.71822411  0.94190155    -0.43340
N3996       N  0.68919379  0.69290009  0.92895851    -0.43340
C3997       C  0.57178693  0.71625704  0.86813341     0.00250
C3998       C  0.55677997  0.70855226  0.87986705    -0.11630
C3999       C  0.54059630  0.69922138  0.87157875     0.02480
C4000       C  0.53894247  0.69780588  0.85108655     0.00160
C4001       C  0.55356982  0.70587588  0.83935657    -0.11570
C4002       C  0.56997012  0.71473641  0.84755735     0.02370
H4003       H  0.55765950  0.70982833  0.89562692     0.15350
H4004       H  0.55256513  0.70456547  0.82359284     0.15350
C4005       C  0.58492953  0.72110412  0.83421955     0.37000
C4006       C  0.52572187  0.69164701  0.88441854     0.36910
N4007       N  0.59648653  0.72612883  0.82300499    -0.43340
N4008       N  0.51380982  0.68557200  0.89471786    -0.43340
C4009       C  0.53986143  0.29417776  0.14141917     0.00250
C4010       C  0.55399567  0.28497888  0.15297472    -0.11630
C4011       C  0.57013591  0.27575647  0.14453025     0.02480
C4012       C  0.57202990  0.27493200  0.12394678     0.00160
C4013       C  0.55768658  0.28394336  0.11241696    -0.11570
C4014       C  0.54191230  0.29373103  0.12090277     0.02370
H4015       H  0.55280402  0.28559860  0.16876103     0.15350
H4016       H  0.55877609  0.28333887  0.09662687     0.15350
C4017       C  0.52793615  0.30287572  0.10813288     0.37000
C4018       C  0.58495781  0.26829248  0.15745234     0.36910
N4019       N  0.51685940  0.31027624  0.09781261    -0.43340
N4020       N  0.59677923  0.26230913  0.16787257    -0.43340
C4021       C  0.29724320  0.53815350  0.14092059     0.00250
C4022       C  0.27691289  0.53829322  0.13911236    -0.11630
C4023       C  0.26726726  0.55398081  0.13036253     0.02480
C4024       C  0.27800255  0.57031154  0.12372469     0.00160
C4025       C  0.29838943  0.57014590  0.12569206    -0.11570
C4026       C  0.30804335  0.55424353  0.13403177     0.02370
H4027       H  0.26854162  0.52592793  0.14430249     0.15350
H4028       H  0.30683791  0.58262239  0.12094096     0.15350
C4029       C  0.32894704  0.55522866  0.13616249     0.37000
C4030       C  0.24644921  0.55251587  0.12777636     0.36910
N4031       N  0.34569196  0.55600547  0.13788237    -0.43340
N4032       N  0.22976035  0.55133886  0.12576627    -0.43340
C4033       C  0.35158608  0.53837744  0.19806655     0.00250
C4034       C  0.33980126  0.55294729  0.20627654    -0.11630
C4035       C  0.34795964  0.56975515  0.21446130     0.02480
C4036       C  0.36843842  0.57183377  0.21537596     0.00160
C4037       C  0.38020086  0.55721201  0.20716835    -0.11570
C4038       C  0.37201541  0.54081258  0.19823447     0.02370
H4039       H  0.32407817  0.55157864  0.20558359     0.15350
H4040       H  0.39591981  0.55856706  0.20775931     0.15350
C4041       C  0.38500742  0.52676668  0.18947122     0.37000
C4042       C  0.33492108  0.58505134  0.22070465     0.36910
N4043       N  0.39550803  0.51566832  0.18232012    -0.43340
N4044       N  0.32443930  0.59730148  0.22564493    -0.43340
C4045       C  0.42138857  0.62263307  0.21590783     0.00250
C4046       C  0.42318763  0.64302427  0.21662787    -0.11630
C4047       C  0.43935476  0.65253579  0.20864704     0.02480
C4048       C  0.45406511  0.64165972  0.19914964     0.00160
C4049       C  0.45230199  0.62131079  0.19830518    -0.11570
C4050       C  0.43639184  0.61172720  0.20680842     0.02370
H4051       H  0.41175679  0.65168813  0.22326710     0.15350
H4052       H  0.46358598  0.61279735  0.19121597     0.15350
C4053       C  0.43634881  0.59069497  0.20653619     0.37000
C4054       C  0.44000604  0.67353503  0.20987588     0.36910
N4055       N  0.43636613  0.57384104  0.20620436    -0.43340
N4056       N  0.44053109  0.69035000  0.21097033    -0.43340
C4057       C  0.42091249  0.36891933  0.21455596     0.00250
C4058       C  0.43731260  0.36410552  0.22583787    -0.11630
C4059       C  0.45375477  0.35548535  0.21727816     0.02480
C4060       C  0.45406882  0.35177968  0.19701694     0.00160
C4061       C  0.43783999  0.35679158  0.18569356    -0.11570
C4062       C  0.42124247  0.36498436  0.19426593     0.02370
H4063       H  0.43730479  0.36715390  0.24138017     0.15350
H4064       H  0.43784725  0.35359698  0.17017090     0.15350
C4065       C  0.40438980  0.36813081  0.18206493     0.37000
C4066       C  0.47032313  0.35108859  0.22945496     0.36910
N4067       N  0.39087243  0.37061878  0.17230712    -0.43340
N4068       N  0.48364194  0.34759345  0.23917329    -0.43340
C4069       C  0.35035277  0.45187452  0.19916861     0.00250
C4070       C  0.34168009  0.43347727  0.19731533    -0.11630
C4071       C  0.35037695  0.41700548  0.20557982     0.02480
C4072       C  0.36800789  0.41890376  0.21593811     0.00160
C4073       C  0.37658244  0.43733769  0.21795242    -0.11570
C4074       C  0.36783069  0.45382739  0.20973120     0.02370
H4075       H  0.32829142  0.43193741  0.18905808     0.15350
H4076       H  0.39002918  0.43884123  0.22610869     0.15350
C4077       C  0.37662509  0.47263243  0.21294683     0.37000
C4078       C  0.34132614  0.39822909  0.20273914     0.36910
N4079       N  0.38365821  0.48766280  0.21587847    -0.43340
N4080       N  0.33412868  0.38315807  0.20043832    -0.43340
C4081       C  0.57210358  0.37053339  0.21551784     0.00250
C4082       C  0.57050794  0.35013083  0.21601704    -0.11630
C4083       C  0.55474817  0.34049502  0.20746496     0.02480
C4084       C  0.54022290  0.35125419  0.19761012     0.00160
C4085       C  0.54178255  0.37162653  0.19693319    -0.11570
C4086       C  0.55731210  0.38133771  0.20601466     0.02370
H4087       H  0.58181495  0.34154623  0.22291646     0.15350
H4088       H  0.53060193  0.38003805  0.18961041     0.15350
C4089       C  0.55718745  0.40236636  0.20592941     0.37000
C4090       C  0.55432938  0.31947764  0.20852688     0.36910
N4091       N  0.55708102  0.41922213  0.20576686    -0.43340
N4092       N  0.55399519  0.30265282  0.20950247    -0.43340
C4093       C  0.62597454  0.42009490  0.21534038     0.00250
C4094       C  0.63288558  0.41828764  0.19612136    -0.11630
C4095       C  0.64208531  0.43393868  0.18680136     0.02480
C4096       C  0.64440905  0.45179101  0.19674943     0.00160
C4097       C  0.63771536  0.45357305  0.21599491    -0.11570
C4098       C  0.62835106  0.43799118  0.22527013     0.02370
H4099       H  0.63128286  0.40453848  0.18847295     0.15350
H4100       H  0.63948781  0.46727783  0.22365038     0.15350
C4101       C  0.62057718  0.44097814  0.24464557     0.37000
C4102       C  0.64980822  0.43108626  0.16737270     0.36910
N4103       N  0.61426593  0.44334689  0.26014344    -0.43340
N4104       N  0.65611249  0.42877219  0.15186163    -0.43340
C4105       C  0.62623196  0.57129929  0.21475584     0.00250
C4106       C  0.62740346  0.55367918  0.22507177    -0.11630
C4107       C  0.63607922  0.53722117  0.21656743     0.02480
C4108       C  0.64317620  0.53818630  0.19725186     0.00160
C4109       C  0.64213575  0.55581828  0.18704431    -0.11570
C4110       C  0.63422622  0.57243286  0.19579980     0.02370
H4111       H  0.62157746  0.55281662  0.23977373     0.15350
H4112       H  0.64835020  0.55682392  0.17250024     0.15350
C4113       C  0.63607437  0.59080559  0.18574953     0.37000
C4114       C  0.63736227  0.51951279  0.22782112     0.36910
N4115       N  0.63811476  0.60553740  0.17781474    -0.43340
N4116       N  0.63842544  0.50538101  0.23694715    -0.43340
C4117       C  0.57411462  0.62264206  0.21379386     0.00250
C4118       C  0.55949280  0.63051795  0.22593258    -0.11630
C4119       C  0.54303515  0.63974008  0.21810082     0.02480
C4120       C  0.54064531  0.64080523  0.19767655     0.00160
C4121       C  0.55490586  0.63262758  0.18555604    -0.11570
C4122       C  0.57158877  0.62390705  0.19327343     0.02370
H4123       H  0.56084541  0.62942467  0.24166511     0.15350
H4124       H  0.55333927  0.63365687  0.16981964     0.15350
C4125       C  0.58600198  0.61730102  0.17944861     0.37000
C4126       C  0.52864105  0.64754146  0.23134800     0.36910
N4127       N  0.59705837  0.61203756  0.16783743    -0.43340
N4128       N  0.51712388  0.65382139  0.24197461    -0.43340
C4129       C  0.27857034  0.36822091  0.07255354     0.00250
C4130       C  0.26738103  0.36303770  0.05617382    -0.11630
C4131       C  0.27603441  0.35430759  0.03982083     0.02480
C4132       C  0.29627080  0.35086076  0.03963299     0.00160
C4133       C  0.30747044  0.35614381  0.05589094    -0.11570
C4134       C  0.29881616  0.36447184  0.07238118     0.02370
H4135       H  0.25186388  0.36596041  0.05610043     0.15350
H4136       H  0.32297774  0.35311795  0.05597100     0.15350
C4137       C  0.31091214  0.36804432  0.08925726     0.37000
C4138       C  0.26399346  0.34960208  0.02320257     0.36910
N4139       N  0.32062787  0.37085221  0.10276723    -0.43340
N4140       N  0.25436894  0.34586643  0.00985272    -0.43340
C4141       C  0.29641961  0.45183679  0.14168368     0.00250
C4142       C  0.27631887  0.45258100  0.13812282    -0.11630
C4143       C  0.26672724  0.43701387  0.12899250     0.02480
C4144       C  0.27727368  0.42013762  0.12369097     0.00160
C4145       C  0.29737111  0.41943161  0.12741040    -0.11570
C4146       C  0.30698106  0.43505682  0.13625893     0.02370
H4147       H  0.26816458  0.46549171  0.14219351     0.15350
H4148       H  0.30556222  0.40644568  0.12367590     0.15350
C4149       C  0.32749412  0.43308295  0.14049099     0.37000
C4150       C  0.24627620  0.43903356  0.12458161     0.36910
N4151       N  0.34390736  0.43147023  0.14393699    -0.43340
N4152       N  0.22988871  0.44064298  0.12101806    -0.43340
C4153       C  0.36793309  0.27738351  0.07509299     0.00250
C4154       C  0.38001191  0.28535252  0.06056146    -0.11630
C4155       C  0.37219894  0.29446919  0.04405691     0.02480
C4156       C  0.35182517  0.29514474  0.04141107     0.00160
C4157       C  0.33971688  0.28730154  0.05597067    -0.11570
C4158       C  0.34751219  0.27888194  0.07286573     0.02370
H4159       H  0.39570346  0.28434123  0.06202025     0.15350
H4160       H  0.32402856  0.28834754  0.05446207     0.15350
C4161       C  0.33419744  0.27291126  0.08806782     0.37000
C4162       C  0.38554591  0.30277326  0.03009160     0.36910
N4163       N  0.32350492  0.26818594  0.10025264    -0.43340
N4164       N  0.39651376  0.30955592  0.01922109    -0.43340
C4165       C  0.42128610  0.27482309  0.12536794     0.00250
C4166       C  0.43381785  0.28608117  0.11354826    -0.11630
C4167       C  0.44991458  0.29595271  0.12136891     0.02480
C4168       C  0.45433921  0.29414973  0.14142614     0.00160
C4169       C  0.44233896  0.28240319  0.15309095    -0.11570
C4170       C  0.42591968  0.27305197  0.14549535     0.02370
H4171       H  0.43106110  0.28728662  0.09801528     0.15350
H4172       H  0.44539633  0.28100364  0.16856924     0.15350
C4173       C  0.41407124  0.26245968  0.15927120     0.37000
C4174       C  0.46155000  0.30772073  0.10835670     0.36910
N4175       N  0.40521724  0.25384958  0.17076774    -0.43340
N4176       N  0.47069284  0.31725229  0.09785346    -0.43340
C4177       C  0.29632422  0.34996917  0.95392517     0.00250
C4178       C  0.29032273  0.33849956  0.93807319    -0.11630
C4179       C  0.28124683  0.34687591  0.92185344     0.02480
C4180       C  0.27749039  0.36711644  0.92154730     0.00160
C4181       C  0.28337781  0.37856757  0.93753000    -0.11570
C4182       C  0.29282339  0.37020058  0.95359415     0.02370
H4183       H  0.29328247  0.32297499  0.93810610     0.15350
H4184       H  0.28049650  0.39409954  0.93749726     0.15350
C4185       C  0.29816894  0.38254290  0.96980896     0.37000
C4186       C  0.27693100  0.33450917  0.90533784     0.36910
N4187       N  0.30242032  0.39241765  0.98283106    -0.43340
N4188       N  0.27351649  0.32459619  0.89209751    -0.43340
C4189       C  0.27799327  0.41872014  0.87023563     0.00250
C4190       C  0.28494753  0.41675020  0.85107507    -0.11630
C4191       C  0.29459302  0.43215603  0.84185561     0.02480
C4192       C  0.29722897  0.44994935  0.85182450     0.00160
C4193       C  0.29045444  0.45190993  0.87104041    -0.11570
C4194       C  0.28075956  0.43648662  0.88026259     0.02370
H4195       H  0.28311835  0.40301905  0.84344074     0.15350
H4196       H  0.29240322  0.46561870  0.87868502     0.15350
C4197       C  0.27316693  0.43942003  0.89971455     0.37000
C4198       C  0.30247548  0.42909285  0.82252115     0.36910
N4199       N  0.26699393  0.44175523  0.91527330    -0.43340
N4200       N  0.30893778  0.42662409  0.80709969    -0.43340
C4201       C  0.35278242  0.29404242  0.95403833     0.00250
C4202       C  0.34097848  0.28572062  0.93953884    -0.11630
C4203       C  0.34909756  0.27728593  0.92278543     0.02480
C4204       C  0.36958629  0.27613824  0.92071089     0.00160
C4205       C  0.38136451  0.28434269  0.93534843    -0.11570
C4206       C  0.37319679  0.29360312  0.95163835     0.02370
H4207       H  0.32525725  0.28657382  0.94088577     0.15350
H4208       H  0.39708540  0.28361297  0.93403892     0.15350
C4209       C  0.38620861  0.30251740  0.96552943     0.37000
C4210       C  0.33598552  0.27112607  0.90749853     0.36910
N4211       N  0.39690010  0.30982791  0.97632027    -0.43340
N4212       N  0.32544319  0.26624634  0.89526022    -0.43340
C4213       C  0.42106431  0.27692109  0.86876213     0.00250
C4214       C  0.43857351  0.27844780  0.87925798    -0.11630
C4215       C  0.45514895  0.28686030  0.87070740     0.02480
C4216       C  0.45437911  0.29341911  0.85122471     0.00160
C4217       C  0.43683971  0.29215675  0.84091321    -0.11570
C4218       C  0.42015094  0.28437252  0.84961248     0.02370
H4219       H  0.43929068  0.27299203  0.89409733     0.15350
H4220       H  0.43599092  0.29800278  0.82626457     0.15350
C4221       C  0.40198662  0.28568407  0.83915715     0.37000
C4222       C  0.47283120  0.28830261  0.88199455     0.36910
N4223       N  0.38749735  0.28739115  0.83074085    -0.43340
N4224       N  0.48701354  0.28951164  0.89102499    -0.43340
C4225       C  0.27823050  0.62194251  0.91919330     0.00250
C4226       C  0.26704823  0.62697805  0.93567543    -0.11630
C4227       C  0.27557635  0.63583766  0.95200011     0.02480
C4228       C  0.29576842  0.63951522  0.95221406     0.00160
C4229       C  0.30703533  0.63431919  0.93591642    -0.11570
C4230       C  0.29845151  0.62590644  0.91936754     0.02370
H4231       H  0.25156150  0.62387961  0.93584609     0.15350
H4232       H  0.32251120  0.63750419  0.93584034     0.15350
C4233       C  0.31055883  0.62254726  0.90244182     0.37000
C4234       C  0.26340641  0.64051063  0.96856633     0.36910
N4235       N  0.32028316  0.61990278  0.88888195    -0.43340
N4236       N  0.25368299  0.64424998  0.98186496    -0.43340
C4237       C  0.27413797  0.56820502  0.86885673     0.00250
C4238       C  0.28449626  0.55492425  0.88061655    -0.11630
C4239       C  0.29429452  0.53890845  0.87254129     0.02480
C4240       C  0.29330126  0.53532470  0.85224638     0.00160
C4241       C  0.28220032  0.54787314  0.84061726    -0.11570
C4242       C  0.27295379  0.56425202  0.84850189     0.02370
H4243       H  0.28512952  0.55706528  0.89628347     0.15350
H4244       H  0.28141226  0.54536510  0.82498814     0.15350
C4245       C  0.26320290  0.57683991  0.83480241     0.37000
C4246       C  0.30516414  0.52642636  0.88552403     0.36910
N4247       N  0.25527083  0.58632979  0.82335580    -0.43340
N4248       N  0.31396070  0.51652975  0.89595578    -0.43340
C4249       C  0.57207088  0.27354829  0.87112356     0.00250
C4250       C  0.57083005  0.27315961  0.85061743    -0.11630
C4251       C  0.55520850  0.28173573  0.84073382     0.02480
C4252       C  0.54050971  0.29158002  0.85131438     0.00160
C4253       C  0.54168999  0.29210457  0.87177027    -0.11570
C4254       C  0.55700319  0.28294262  0.88172753     0.02370
H4255       H  0.58231020  0.26635769  0.84213727     0.15350
H4256       H  0.53036823  0.29939746  0.88006530     0.15350
C4257       C  0.55634619  0.28285523  0.90280198     0.37000
C4258       C  0.55510214  0.28073952  0.81966047     0.36910
N4259       N  0.55580677  0.28289310  0.91969524    -0.43340
N4260       N  0.55499759  0.27982640  0.80278409    -0.43340
C4261       C  0.62516356  0.27435614  0.92185137     0.00250
C4262       C  0.62982674  0.29425077  0.92031307    -0.11630
C4263       C  0.63869757  0.30422680  0.93579149     0.02480
C4264       C  0.64336480  0.29420199  0.95313695     0.00160
C4265       C  0.63900692  0.27434740  0.95464821    -0.11570
C4266       C  0.62968511  0.26447160  0.93939451     0.02370
H4267       H  0.62664065  0.30201502  0.90690912     0.15350
H4268       H  0.64239832  0.26665479  0.96805272     0.15350
C4269       C  0.62391807  0.24457486  0.94277930     0.37000
C4270       C  0.64352971  0.32454985  0.93325509     0.36910
N4271       N  0.61929297  0.22871174  0.94603915    -0.43340
N4272       N  0.64744809  0.34082233  0.93124333    -0.43340
C4273       C  0.85321069  0.30002511  0.85415929     0.00250
C4274       C  0.85782568  0.28412304  0.84208088    -0.11630
C4275       C  0.86629879  0.26720492  0.84973999     0.02480
C4276       C  0.87056225  0.26604844  0.86990235     0.00160
C4277       C  0.86576168  0.28189839  0.88198844    -0.11570
C4278       C  0.85719590  0.29875618  0.87435118     0.02370
H4279       H  0.85459746  0.28486039  0.82659610     0.15350
H4280       H  0.86910556  0.28126805  0.89745229     0.15350
C4281       C  0.85339394  0.31481180  0.88744854     0.37000
C4282       C  0.86984611  0.25106210  0.83668238     0.36910
N4283       N  0.85030484  0.32765335  0.89796310    -0.43340
N4284       N  0.87271057  0.23814768  0.82619263    -0.43340
C4285       C  0.80157326  0.35181711  0.85279445     0.00250
C4286       C  0.80116157  0.35537849  0.87298003    -0.11630
C4287       C  0.78505131  0.36420475  0.88187125     0.02480
C4288       C  0.76868320  0.36953168  0.87052862     0.00160
C4289       C  0.76911202  0.36599324  0.85030924    -0.11570
C4290       C  0.78529850  0.35724141  0.84140392     0.02370
H4291       H  0.81368490  0.35156083  0.88182265     0.15350
H4292       H  0.75658855  0.36976974  0.84145820     0.15350
C4293       C  0.78452730  0.35344621  0.82067455     0.37000
C4294       C  0.78606522  0.36818796  0.90255879     0.36910
N4295       N  0.78393801  0.35049296  0.80404374    -0.43340
N4296       N  0.78686881  0.37127284  0.91915624    -0.43340
C4297       C  0.85558062  0.35260837  0.80335891     0.00250
C4298       C  0.85880271  0.37281656  0.80354715    -0.11630
C4299       C  0.86742723  0.38229397  0.78762139     0.02480
C4300       C  0.87306793  0.37150193  0.77097036     0.00160
C4301       C  0.86992062  0.35126795  0.77083331    -0.11570
C4302       C  0.86125816  0.34180014  0.78672170     0.02370
H4303       H  0.85472581  0.38124288  0.81632047     0.15350
H4304       H  0.87391879  0.34282969  0.75804039     0.15350
C4305       C  0.85771457  0.32111832  0.78517742     0.37000
C4306       C  0.87080105  0.40296621  0.78916407     0.36910
N4307       N  0.85496779  0.30452972  0.78395330    -0.43340
N4308       N  0.87331432  0.41954650  0.79078867    -0.43340
C4309       C  0.62355169  0.76790748  0.87057383     0.00250
C4310       C  0.62388003  0.78551686  0.88097971    -0.11630
C4311       C  0.63235983  0.80223047  0.87284211     0.02480
C4312       C  0.64032657  0.80149884  0.85384135     0.00160
C4313       C  0.64027525  0.78383219  0.84359238    -0.11570
C4314       C  0.63234770  0.76700740  0.85195160     0.02370
H4315       H  0.61742634  0.78620660  0.89542745     0.15350
H4316       H  0.64694913  0.78308480  0.82924344     0.15350
C4317       C  0.63471524  0.74874928  0.84177639     0.37000
C4318       C  0.63253584  0.82000918  0.88411552     0.36910
N4319       N  0.63713870  0.73412844  0.83371851    -0.43340
N4320       N  0.63279056  0.83425510  0.89315808    -0.43340
C4321       C  0.63952853  0.85307037  0.80222921     0.00250
C4322       C  0.63411577  0.84116576  0.78643527    -0.11630
C4323       C  0.62518788  0.84899368  0.76981225     0.02480
C4324       C  0.62140534  0.86921087  0.76875852     0.00160
C4325       C  0.62677833  0.88110372  0.78457083    -0.11570
C4326       C  0.63566669  0.87327352  0.80120321     0.02370
H4327       H  0.63715690  0.82567333  0.78696264     0.15350
H4328       H  0.62373595  0.89659752  0.78404560     0.15350
C4329       C  0.63999417  0.88624282  0.81723725     0.37000
C4330       C  0.62071128  0.83600668  0.75383491     0.36910
N4331       N  0.64351157  0.89668301  0.83003597    -0.43340
N4332       N  0.61704170  0.82555700  0.74108679    -0.43340
C4333       C  0.69303578  0.85158032  0.85251590     0.00250
C4334       C  0.69308045  0.85481569  0.87274766    -0.11630
C4335       C  0.70910266  0.86321084  0.88212217     0.02480
C4336       C  0.72571960  0.86868066  0.87121288     0.00160
C4337       C  0.72578172  0.86518667  0.85094944    -0.11570
C4338       C  0.70971780  0.85672357  0.84157560     0.02370
H4339       H  0.68028281  0.85111657  0.88128562     0.15350
H4340       H  0.73853109  0.86896726  0.84238843     0.15350
C4341       C  0.71100748  0.85300788  0.82085747     0.37000
C4342       C  0.70746049  0.86666952  0.90280694     0.36910
N4343       N  0.71203626  0.85011181  0.80423604    -0.43340
N4344       N  0.70549396  0.86910706  0.91939815    -0.43340
C4345       C  0.76982250  0.62259978  0.12161625     0.00250
C4346       C  0.76761402  0.63584221  0.13705518    -0.11630
C4347       C  0.78393528  0.64414748  0.14603994     0.02480
C4348       C  0.80276256  0.63915126  0.13953991     0.00160
C4349       C  0.80496891  0.62600197  0.12401414    -0.11570
C4350       C  0.78864025  0.61765148  0.11506524     0.02370
H4351       H  0.75312564  0.63958149  0.14214370     0.15350
H4352       H  0.81945808  0.62219755  0.11898199     0.15350
C4353       C  0.79146217  0.60393261  0.09932787     0.37000
C4354       C  0.78108901  0.65783226  0.16180495     0.36910
N4355       N  0.79367458  0.59291133  0.08672370    -0.43340
N4356       N  0.77885395  0.66882681  0.17442850    -0.43340
C4357       C  0.85464460  0.68998477  0.13981906     0.00250
C4358       C  0.84267524  0.70589999  0.13522422    -0.11630
C4359       C  0.85038691  0.72273555  0.12671559     0.02480
C4360       C  0.87051338  0.72385554  0.12256036     0.00160
C4361       C  0.88252243  0.70799971  0.12723814    -0.11570
C4362       C  0.87478956  0.69111812  0.13570191     0.02370
H4363       H  0.82723801  0.70526510  0.13854212     0.15350
H4364       H  0.89796316  0.70869557  0.12395338     0.15350
C4365       C  0.88772996  0.67495244  0.13931787     0.37000
C4366       C  0.83741641  0.73886649  0.12301073     0.36910
N4367       N  0.89811520  0.66201728  0.14225561    -0.43340
N4368       N  0.82700362  0.75176452  0.12000799    -0.43340
C4369       C  0.85313268  0.63898703  0.19217870     0.00250
C4370       C  0.85870628  0.61935177  0.19129322    -0.11630
C4371       C  0.86778323  0.61032569  0.20716882     0.02480
C4372       C  0.87130416  0.62096728  0.22448999     0.00160
C4373       C  0.86558882  0.64058932  0.22543311    -0.11570
C4374       C  0.85652908  0.64962603  0.20950958     0.02370
H4375       H  0.85634775  0.61115167  0.17795275     0.15350
H4376       H  0.86799656  0.64880740  0.23874919     0.15350
C4377       C  0.85033358  0.66962408  0.21151631     0.37000
C4378       C  0.87402530  0.59035586  0.20500130     0.36910
N4379       N  0.84535650  0.68564963  0.21310244    -0.43340
N4380       N  0.87900834  0.57434623  0.20328268    -0.43340
C4381       C  0.30328431  0.63844882  0.64031630     0.00250
C4382       C  0.30412194  0.61875229  0.63482709    -0.11630
C4383       C  0.28834037  0.60974787  0.62551637     0.02480
C4384       C  0.27125578  0.62051389  0.62165838     0.00160
C4385       C  0.27043334  0.64019077  0.62723386    -0.11570
C4386       C  0.28618061  0.64918205  0.63651316     0.02370
H4387       H  0.31729597  0.61047747  0.63752286     0.15350
H4388       H  0.25724094  0.64848183  0.62467920     0.15350
C4389       C  0.28414194  0.66923229  0.64258643     0.37000
C4390       C  0.29029007  0.58967323  0.61953931     0.36910
N4391       N  0.28250825  0.68530227  0.64743205    -0.43340
N4392       N  0.29183469  0.57356776  0.61478615    -0.43340
C4393       C  0.35401326  0.63924234  0.69277848     0.00250
C4394       C  0.35889527  0.61939468  0.69267273    -0.11630
C4395       C  0.36693936  0.61048822  0.70917733     0.02480
C4396       C  0.37008937  0.62146386  0.72636271     0.00160
C4397       C  0.36529822  0.64135003  0.72644815    -0.11570
C4398       C  0.35727860  0.65027145  0.70990276     0.02370
H4399       H  0.35664435  0.61086872  0.67952042     0.15350
H4400       H  0.36752548  0.64986329  0.73960932     0.15350
C4401       C  0.35185550  0.67055542  0.71112477     0.37000
C4402       C  0.37245344  0.59023210  0.70784925     0.36910
N4403       N  0.34751314  0.68681333  0.71208017    -0.43340
N4404       N  0.37686822  0.57399987  0.70679841    -0.43340
C4405       C  0.35478948  0.69000492  0.64003273     0.00250
C4406       C  0.35883930  0.70627709  0.65179696    -0.11630
C4407       C  0.36680999  0.72326756  0.64378964     0.02480
C4408       C  0.37091868  0.72417834  0.62358643     0.00160
C4409       C  0.36689905  0.70792832  0.61182915    -0.11570
C4410       C  0.35903769  0.69090488  0.61983519     0.02370
H4411       H  0.35544530  0.70582669  0.66726595     0.15350
H4412       H  0.37025749  0.70843148  0.59635219     0.15350
C4413       C  0.35614401  0.67438822  0.60708485     0.37000
C4414       C  0.37002324  0.73974392  0.65651251     0.36910
N4415       N  0.35377430  0.66118319  0.59684126    -0.43340
N4416       N  0.37265474  0.75292659  0.66672056    -0.43340
C4417       C  0.80277010  0.13714687  0.63877693     0.00250
C4418       C  0.78590336  0.13473725  0.65011516    -0.11630
C4419       C  0.76904435  0.12652225  0.64211561     0.02480
C4420       C  0.76891838  0.12042309  0.62242348     0.00160
C4421       C  0.78575558  0.12283501  0.61105310    -0.11570
C4422       C  0.80265586  0.13101586  0.61907505     0.02370
H4423       H  0.78582699  0.13957734  0.66520118     0.15350
H4424       H  0.78576659  0.11803634  0.59595607     0.15350
C4425       C  0.81988525  0.13228373  0.60703737     0.37000
C4426       C  0.75184342  0.12512986  0.65418916     0.36910
N4427       N  0.83371901  0.13326142  0.59742050    -0.43340
N4428       N  0.73802897  0.12404342  0.66382162    -0.43340
C4429       C  0.85294496  0.13853124  0.69193836     0.00250
C4430       C  0.87309692  0.13513758  0.69241895    -0.11630
C4431       C  0.88201391  0.12708032  0.70890465     0.02480
C4432       C  0.87071672  0.12232798  0.72551369     0.00160
C4433       C  0.85055656  0.12577682  0.72506378    -0.11570
C4434       C  0.84163138  0.13381798  0.70854059     0.02370
H4435       H  0.88189088  0.13850224  0.67968970     0.15350
H4436       H  0.84176542  0.12239621  0.73778688     0.15350
C4437       C  0.82096709  0.13764197  0.70928170     0.37000
C4438       C  0.90266751  0.12321241  0.70805438     0.36910
N4439       N  0.80439441  0.14063913  0.70984591    -0.43340
N4440       N  0.91923254  0.12019508  0.70739248    -0.43340
C4441       C  0.85346348  0.18956260  0.63985439     0.00250
C4442       C  0.87289651  0.18871619  0.63354172    -0.11630
C4443       C  0.88177859  0.20487453  0.62480264     0.02480
C4444       C  0.87117614  0.22229182  0.62237677     0.00160
C4445       C  0.85177212  0.22318241  0.62875265    -0.11570
C4446       C  0.84289800  0.20703657  0.63754040     0.02370
H4447       H  0.88103873  0.17528368  0.63517582     0.15350
H4448       H  0.84363460  0.23661100  0.62706324     0.15350
C4449       C  0.82320036  0.20893763  0.64468621     0.37000
C4450       C  0.90153546  0.20305811  0.61779927     0.36910
N4451       N  0.80744210  0.21044647  0.65049619    -0.43340
N4452       N  0.91734433  0.20164202  0.61210677    -0.43340
C4453       C  0.64132594  0.63937587  0.69011684     0.00250
C4454       C  0.62235360  0.63188919  0.68955427    -0.11630
C4455       C  0.61392369  0.62346373  0.70611771     0.02480
C4456       C  0.62429611  0.62295182  0.72390851     0.00160
C4457       C  0.64333525  0.63039378  0.72450771    -0.11570
C4458       C  0.65193083  0.63850441  0.70776392     0.02370
H4459       H  0.61431782  0.63209430  0.67592533     0.15350
H4460       H  0.65145340  0.62989582  0.73807099     0.15350
C4461       C  0.67147642  0.64613563  0.70909588     0.37000
C4462       C  0.59515027  0.61421977  0.70410334     0.36910
N4463       N  0.68715873  0.65222611  0.71010874    -0.43340
N4464       N  0.58026120  0.60653783  0.70230300    -0.43340
C4465       C  0.63967575  0.68833859  0.63602280     0.00250
C4466       C  0.63729277  0.70488263  0.64787766    -0.11630
C4467       C  0.62906396  0.72199848  0.64049121     0.02480
C4468       C  0.62248487  0.72265468  0.62099599     0.00160
C4469       C  0.62518531  0.70634415  0.60898523    -0.11570
C4470       C  0.63376681  0.68930726  0.61625321     0.02370
H4471       H  0.64230553  0.70456917  0.66289092     0.15350
H4472       H  0.62040837  0.70688681  0.59390022     0.15350
C4473       C  0.63575286  0.67301515  0.60312644     0.37000
C4474       C  0.62876697  0.73906714  0.65280700     0.36910
N4475       N  0.63719829  0.66027135  0.59216859    -0.43340
N4476       N  0.62892811  0.75277614  0.66264906    -0.43340
C4477       C  0.69110329  0.63625997  0.63692892     0.00250
C4478       C  0.70832573  0.63556439  0.64792980    -0.11630
C4479       C  0.72526191  0.62718229  0.64022930     0.02480
C4480       C  0.72516664  0.61953723  0.62108470     0.00160
C4481       C  0.70794164  0.62004507  0.61016905    -0.11570
C4482       C  0.69089258  0.62800584  0.61803716     0.02370
H4483       H  0.70856455  0.64173196  0.66251978     0.15350
H4484       H  0.70772582  0.61378268  0.59561893     0.15350
C4485       C  0.67314029  0.62624187  0.60696394     0.37000
C4486       C  0.74265801  0.62698237  0.65205680     0.36910
N4487       N  0.65898989  0.62427388  0.59803717    -0.43340
N4488       N  0.75659089  0.62674364  0.66154113    -0.43340
C4489       C  0.62328582  0.76665494  0.12221625     0.00250
C4490       C  0.62719806  0.78269732  0.11009977    -0.11630
C4491       C  0.63563094  0.79974017  0.11754776     0.02480
C4492       C  0.64050731  0.80095592  0.13755877     0.00160
C4493       C  0.63671325  0.78487157  0.14964864    -0.11570
C4494       C  0.62822987  0.76785203  0.14221637     0.02370
H4495       H  0.62328252  0.78204660  0.09476987     0.15350
H4496       H  0.64058794  0.78554157  0.16498946     0.15350
C4497       C  0.62536723  0.75171260  0.15539210     0.37000
C4498       C  0.63833796  0.81598269  0.10445435     0.36910
N4499       N  0.62311715  0.73894162  0.16617063    -0.43340
N4500       N  0.64049708  0.82892497  0.09386012    -0.43340
C4501       C  0.72517206  0.87050876  0.12215351     0.00250
C4502       C  0.70708666  0.87303404  0.11300689    -0.11630
C4503       C  0.69019032  0.86472794  0.12090256     0.02480
C4504       C  0.69133989  0.85351301  0.13809360     0.00160
C4505       C  0.70940699  0.85100393  0.14726694    -0.11570
C4506       C  0.72630013  0.85935144  0.13940929     0.02370
H4507       H  0.70616941  0.88165572  0.09977665     0.15350
H4508       H  0.71031913  0.84232708  0.16046251     0.15350
C4509       C  0.74471454  0.85575922  0.14889561     0.37000
C4510       C  0.67175990  0.86834879  0.11148114     0.36910
N4511       N  0.75950157  0.85284775  0.15642920    -0.43340
N4512       N  0.65696777  0.87138527  0.10401247    -0.43340
C4513       C  0.64045054  0.85163407  0.19007492     0.00250
C4514       C  0.63230731  0.87035639  0.18936398    -0.11630
C4515       C  0.62356526  0.87857222  0.20591767     0.02480
C4516       C  0.62303769  0.86802102  0.22357696     0.00160
C4517       C  0.63118336  0.84930321  0.22429119    -0.11570
C4518       C  0.63993015  0.84108921  0.20774260     0.02370
H4519       H  0.63254960  0.87843881  0.17576329     0.15350
H4520       H  0.63095315  0.84122814  0.23789704     0.15350
C4521       C  0.64887045  0.82213215  0.20938360     0.37000
C4522       C  0.61465913  0.89754816  0.20430703     0.36910
N4523       N  0.65611759  0.80697644  0.21067599    -0.43340
N4524       N  0.60743744  0.91271925  0.20305172    -0.43340
C4525       C  0.14056011  0.80087965  0.63933742     0.00250
C4526       C  0.12058191  0.80203648  0.63523848    -0.11630
C4527       C  0.11078496  0.78664362  0.62615238     0.02480
C4528       C  0.12098059  0.76951470  0.62109873     0.00160
C4529       C  0.14098644  0.76831737  0.62527575    -0.11570
C4530       C  0.15080946  0.78377193  0.63430953     0.02370
H4531       H  0.11266487  0.81525040  0.63877867     0.15350
H4532       H  0.14892362  0.75513626  0.62167071     0.15350
C4533       C  0.17122172  0.78146472  0.63877447     0.37000
C4534       C  0.09052858  0.78932601  0.62137628     0.36910
N4535       N  0.18759121  0.77962982  0.64231236    -0.43340
N4536       N  0.07433285  0.79193283  0.61759795    -0.43340
C4537       C  0.14153678  0.85234807  0.69070801     0.00250
C4538       C  0.14499876  0.84405106  0.70906279    -0.11630
C4539       C  0.13683704  0.85223447  0.72590411     0.02480
C4540       C  0.12484154  0.86881130  0.72437220     0.00160
C4541       C  0.12150596  0.87720652  0.70603824    -0.11570
C4542       C  0.12978993  0.86911022  0.68920973     0.02370
H4543       H  0.15418828  0.83126023  0.71021399     0.15350
H4544       H  0.11224988  0.88994826  0.70488013     0.15350
C4545       C  0.12573183  0.87792499  0.67052076     0.37000
C4546       C  0.14125625  0.84367168  0.74462295     0.36910
N4547       N  0.12248979  0.88493824  0.65551470    -0.43340
N4548       N  0.14494429  0.83689428  0.75963300    -0.43340
C4549       C  0.19171941  0.85309817  0.63815553     0.00250
C4550       C  0.20815131  0.85704675  0.64967184    -0.11630
C4551       C  0.22467014  0.86591445  0.64165840     0.02480
C4552       C  0.22485421  0.87121687  0.62172069     0.00160
C4553       C  0.20838031  0.86730669  0.61022528    -0.11570
C4554       C  0.19190134  0.85835208  0.61822659     0.02370
H4555       H  0.20818013  0.85288596  0.66495136     0.15350
H4556       H  0.20832844  0.87144553  0.59494157     0.15350
C4557       C  0.17519423  0.85529206  0.60581032     0.37000
C4558       C  0.24144538  0.86867428  0.65405607     0.36910
N4559       N  0.16183048  0.85277851  0.59584198    -0.43340
N4560       N  0.25485789  0.87092309  0.66402263    -0.43340
C4561       C  0.63866837  0.30255648  0.63712718     0.00250
C4562       C  0.63453127  0.28641229  0.64902663    -0.11630
C4563       C  0.62624541  0.26946193  0.64122557     0.02480
C4564       C  0.62182289  0.26847387  0.62109730     0.00160
C4565       C  0.62598435  0.28458778  0.60919838    -0.11570
C4566       C  0.63424177  0.30154251  0.61699664     0.02370
H4567       H  0.63805392  0.28695073  0.66445491     0.15350
H4568       H  0.62250645  0.28401032  0.59376040     0.15350
C4569       C  0.63736150  0.31789886  0.60412500     0.37000
C4570       C  0.62310842  0.25307535  0.65406499     0.36910
N4571       N  0.63991330  0.33099142  0.59380238    -0.43340
N4572       N  0.62058251  0.23996355  0.66437164    -0.43340
C4573       C  0.63799130  0.35368913  0.68927234     0.00250
C4574       C  0.64929355  0.35487128  0.70629069    -0.11630
C4575       C  0.64151965  0.36252151  0.72358289     0.02480
C4576       C  0.62215284  0.36941219  0.72392780     0.00160
C4577       C  0.61082958  0.36814340  0.70691915    -0.11570
C4578       C  0.61857706  0.36039642  0.68965772     0.02370
H4579       H  0.66415062  0.34951307  0.70612274     0.15350
H4580       H  0.59597464  0.37350591  0.70706352     0.15350
C4581       C  0.60656784  0.36010101  0.67236968     0.37000
C4582       C  0.65343328  0.36244788  0.74094297     0.36910
N4583       N  0.59697397  0.35987622  0.65849117    -0.43340
N4584       N  0.66294273  0.36234349  0.75488158    -0.43340
C4585       C  0.68970141  0.35492989  0.63762856     0.00250
C4586       C  0.68962600  0.35892510  0.61750220    -0.11630
C4587       C  0.70571130  0.36759527  0.60835206     0.02480
C4588       C  0.72244579  0.37232239  0.61938457     0.00160
C4589       C  0.72244664  0.36836892  0.63953311    -0.11570
C4590       C  0.70635952  0.35979358  0.64868639     0.02370
H4591       H  0.67681326  0.35546737  0.60892193     0.15350
H4592       H  0.73530103  0.37159440  0.64813156     0.15350
C4593       C  0.70768190  0.35548440  0.66928605     0.37000
C4594       C  0.70437998  0.37194897  0.58778012     0.36910
N4595       N  0.70872808  0.35211941  0.68580876    -0.43340
N4596       N  0.70331868  0.37533607  0.57126467    -0.43340
C4597       C  0.63978245  0.63874688  0.30162430     0.00250
C4598       C  0.65200139  0.63611001  0.28537093    -0.11630
C4599       C  0.64478982  0.62835580  0.26786682     0.02480
C4600       C  0.62500353  0.62290343  0.26646689     0.00160
C4601       C  0.61277028  0.62564909  0.28268082    -0.11570
C4602       C  0.61996704  0.63341477  0.30016749     0.02370
H4603       H  0.66718669  0.64036062  0.28629549     0.15350
H4604       H  0.59759735  0.62134358  0.28178558     0.15350
C4605       C  0.60690504  0.63502957  0.31663205     0.37000
C4606       C  0.65780762  0.62676183  0.25136707     0.36910
N4607       N  0.59646194  0.63632889  0.32984492    -0.43340
N4608       N  0.66821081  0.62549703  0.23811874    -0.43340
C4609       C  0.63890464  0.68925907  0.35456572     0.00250
C4610       C  0.61881552  0.68939464  0.35846786    -0.11630
C4611       C  0.60987367  0.70558147  0.36715961     0.02480
C4612       C  0.62109660  0.72213408  0.37204695     0.00160
C4613       C  0.64117277  0.72199370  0.36809278    -0.11570
C4614       C  0.65010412  0.70584226  0.35939068     0.02370
H4615       H  0.61012434  0.67666624  0.35496760     0.15350
H4616       H  0.64986687  0.73474747  0.37147724     0.15350
C4617       C  0.67062565  0.70699107  0.35489908     0.37000
C4618       C  0.58931281  0.70456471  0.37145718     0.36910
N4619       N  0.68707463  0.70791261  0.35132510    -0.43340
N4620       N  0.57282142  0.70376746  0.37485642    -0.43340
C4621       C  0.68929773  0.63634443  0.35531125     0.00250
C4622       C  0.70585712  0.63281807  0.34378980    -0.11630
C4623       C  0.72262149  0.62447906  0.35183842     0.02480
C4624       C  0.72303820  0.61946057  0.37183539     0.00160
C4625       C  0.70651734  0.62293024  0.38337944    -0.11570
C4626       C  0.68967429  0.63114014  0.37529324     0.02370
H4627       H  0.70581189  0.63692190  0.32849667     0.15350
H4628       H  0.70670180  0.61894844  0.39870284     0.15350
C4629       C  0.67277909  0.63339932  0.38765412     0.37000
C4630       C  0.73944947  0.62187196  0.33943098     0.36910
N4631       N  0.65923388  0.63520888  0.39755881    -0.43340
N4632       N  0.75293748  0.61978095  0.32950138    -0.43340
C4633       C  0.13914747  0.63820328  0.80250494     0.00250
C4634       C  0.13126918  0.61944198  0.80408592    -0.11630
C4635       C  0.12209320  0.61059018  0.78816352     0.02480
C4636       C  0.12094290  0.62046280  0.77009905     0.00160
C4637       C  0.12877048  0.63930404  0.76854452    -0.11570
C4638       C  0.13782703  0.64821811  0.78456730     0.02370
H4639       H  0.13197156  0.61183785  0.81794766     0.15350
H4640       H  0.12809524  0.64692240  0.75469546     0.15350
C4641       C  0.14617127  0.66737158  0.78212773     0.37000
C4642       C  0.11337762  0.59164468  0.79094038     0.36910
N4643       N  0.15289383  0.68271179  0.78020878    -0.43340
N4644       N  0.10637838  0.57646770  0.79313923    -0.43340
C4645       C  0.13799432  0.68908778  0.85462363     0.00250
C4646       C  0.14955424  0.70550248  0.85844057    -0.11630
C4647       C  0.14155097  0.72217685  0.86701311     0.02480
C4648       C  0.12161022  0.72249683  0.87214052     0.00160
C4649       C  0.11004537  0.70609447  0.86825162    -0.11570
C4650       C  0.11803792  0.68945626  0.85960611     0.02370
H4651       H  0.16484402  0.70537360  0.85444314     0.15350
H4652       H  0.09475722  0.70619375  0.87225692     0.15350
C4653       C  0.10560024  0.67275142  0.85662519     0.37000
C4654       C  0.15396235  0.73895326  0.86972258     0.36910
N4655       N  0.09563267  0.65937475  0.85418855    -0.43340
N4656       N  0.16391695  0.75238209  0.87192138    -0.43340
C4657       C  0.18946172  0.63764599  0.85526395     0.00250
C4658       C  0.20644718  0.63597256  0.84400298    -0.11630
C4659       C  0.22342739  0.62801542  0.85191093     0.02480
C4660       C  0.22341905  0.62096279  0.87125093     0.00160
C4661       C  0.20656002  0.62288127  0.88266542    -0.11570
C4662       C  0.18965080  0.63124665  0.87487854     0.02370
H4663       H  0.20656420  0.64135934  0.82911487     0.15350
H4664       H  0.20658337  0.61768485  0.89761833     0.15350
C4665       C  0.17259703  0.63269746  0.88714249     0.37000
C4666       C  0.24099448  0.62838288  0.84032422     0.36910
N4667       N  0.15895262  0.63396516  0.89699533    -0.43340
N4668       N  0.25510898  0.62905183  0.83110283    -0.43340
C4669       C  0.63857523  0.13653062  0.80199298     0.00250
C4670       C  0.61952187  0.12923501  0.80361441    -0.11630
C4671       C  0.61023059  0.12062568  0.78753964     0.02480
C4672       C  0.62018701  0.11902921  0.76957990     0.00160
C4673       C  0.63913886  0.12648972  0.76796531    -0.11570
C4674       C  0.64824520  0.13543698  0.78385484     0.02370
H4675       H  0.61194131  0.13021928  0.81748428     0.15350
H4676       H  0.64663791  0.12581408  0.75402480     0.15350
C4677       C  0.66689924  0.14460072  0.78074888     0.37000
C4678       C  0.59068378  0.11325432  0.78988603     0.36910
N4679       N  0.68164850  0.15223950  0.77790763    -0.43340
N4680       N  0.57498518  0.10739882  0.79172521    -0.43340
C4681       C  0.69134710  0.13676107  0.85285185     0.00250
C4682       C  0.69144139  0.13401186  0.87319912    -0.11630
C4683       C  0.70752985  0.12584604  0.88271683     0.02480
C4684       C  0.72416126  0.12031535  0.87185548     0.00160
C4685       C  0.72404253  0.12297115  0.85153143    -0.11570
C4686       C  0.70792315  0.13101827  0.84199585     0.02370
H4687       H  0.67872806  0.13802304  0.88171172     0.15350
H4688       H  0.73678168  0.11900382  0.84303541     0.15350
C4689       C  0.70927474  0.13367523  0.82115861     0.37000
C4690       C  0.70625942  0.12275223  0.90353810     0.36910
N4691       N  0.71081200  0.13547244  0.80443796    -0.43340
N4692       N  0.70526810  0.12036184  0.92023740    -0.45260
C4693       C  0.63975423  0.18829352  0.85334547     0.00250
C4694       C  0.63428431  0.18720145  0.87305789    -0.11630
C4695       C  0.62537747  0.20300430  0.88242748     0.02480
C4696       C  0.62218282  0.22051862  0.87214885     0.00160
C4697       C  0.62761904  0.22159287  0.85238706    -0.11570
C4698       C  0.63627978  0.20568205  0.84293351     0.02370
H4699       H  0.63655191  0.17374446  0.88102721     0.15350
H4700       H  0.62525863  0.23500277  0.84436962     0.15350
C4701       C  0.64194020  0.20773175  0.82272380     0.37000
C4702       C  0.61856649  0.20034133  0.90215936     0.36910
N4703       N  0.64644390  0.20933680  0.80651393    -0.43340
N4704       N  0.61292800  0.19767522  0.91785085    -0.43340
C4705       C  0.85793077  0.30181495  0.13689721     0.00250
C4706       C  0.85877824  0.28506720  0.14859889    -0.11630
C4707       C  0.86653821  0.26766794  0.14129420     0.02480
C4708       C  0.87335365  0.26681582  0.12185536     0.00160
C4709       C  0.87268350  0.28358259  0.11022905    -0.11570
C4710       C  0.86536400  0.30109751  0.11768864     0.02370
H4711       H  0.85323982  0.28557425  0.16343409     0.15350
H4712       H  0.87838826  0.28309327  0.09545618     0.15350
C4713       C  0.86696610  0.31838607  0.10585460     0.37000
C4714       C  0.86703754  0.25080047  0.15386860     0.36910
N4715       N  0.86878418  0.33219709  0.09636406    -0.43340
N4716       N  0.86753293  0.23728511  0.16394040    -0.43340
C4717       C  0.80584837  0.35320200  0.13610848     0.00250
C4718       C  0.79060289  0.35837435  0.14883536    -0.11630
C4719       C  0.77327912  0.36649831  0.14180507     0.02480
C4720       C  0.77086475  0.36961768  0.12155764     0.00160
C4721       C  0.78595775  0.36432270  0.10881482    -0.11570
C4722       C  0.80330107  0.35625063  0.11582186     0.02370
H4723       H  0.79210298  0.35579753  0.16438429     0.15350
H4724       H  0.78429669  0.36679504  0.09325734     0.15350
C4725       C  0.81828080  0.35190937  0.10171802     0.37000
C4726       C  0.75801600  0.37087107  0.15566177     0.36910
N4727       N  0.82989820  0.34849653  0.08996723    -0.43340
N4728       N  0.74583790  0.37443935  0.16679917    -0.43340
C4729       C  0.87290218  0.37121916  0.22216788     0.00250
C4730       C  0.86845013  0.35125568  0.22191059    -0.11630
C4731       C  0.86050971  0.34243734  0.20527338     0.02480
C4732       C  0.85704461  0.35363159  0.18830996     0.00160
C4733       C  0.86144159  0.37360996  0.18858994    -0.11570
C4734       C  0.86932073  0.38243934  0.20526033     0.02370
H4735       H  0.87088418  0.34257341  0.23490583     0.15350
H4736       H  0.85896711  0.38230366  0.17561183     0.15350
C4737       C  0.87418800  0.40288294  0.20439137     0.37000
C4738       C  0.85537688  0.32205739  0.20628308     0.36910
N4739       N  0.87804772  0.41927839  0.20372130    -0.43340
N4740       N  0.85128485  0.30572316  0.20708588    -0.43340
C4741       C  0.13653033  0.30457768  0.85543032     0.00250
C4742       C  0.14785352  0.28764630  0.85677292    -0.11630
C4743       C  0.14009097  0.27047099  0.86447224     0.02480
C4744       C  0.12081172  0.27018860  0.87163491     0.00160
C4745       C  0.10933464  0.28700265  0.87006471    -0.11570
C4746       C  0.11698914  0.30412242  0.86193313     0.02370
H4747       H  0.16267642  0.28771297  0.85127483     0.15350
H4748       H  0.09442580  0.28676578  0.87530109     0.15350
C4749       C  0.10464021  0.32108269  0.86078820     0.37000
C4750       C  0.15176013  0.25300208  0.86364390     0.36910
N4751       N  0.09467088  0.33462483  0.85979178    -0.43340
N4752       N  0.16104207  0.23897535  0.86262850    -0.43340
C4753       C  0.13777721  0.35565872  0.80365507     0.00250
C4754       C  0.14650597  0.35202314  0.78550424    -0.11630
C4755       C  0.13849436  0.35967117  0.76837209     0.02480
C4756       C  0.12154428  0.37122952  0.76935449     0.00160
C4757       C  0.11281728  0.37487175  0.78750512    -0.11570
C4758       C  0.12085203  0.36722901  0.80464720     0.02370
H4759       H  0.15945902  0.34301816  0.78472830     0.15350
H4760       H  0.09986417  0.38387123  0.78827519     0.15350
C4761       C  0.11185845  0.37185478  0.82313716     0.37000
C4762       C  0.14758567  0.35511235  0.74989650     0.36910
N4763       N  0.10474379  0.37565833  0.83798327    -0.43340
N4764       N  0.15479193  0.35143170  0.73506066    -0.43340
C4765       C  0.22405195  0.36978798  0.87159052     0.00250
C4766       C  0.22405843  0.36434619  0.85181269    -0.11630
C4767       C  0.20741424  0.35636999  0.84309513     0.02480
C4768       C  0.19025650  0.35384631  0.85421480     0.00160
C4769       C  0.19026940  0.35926682  0.87399144    -0.11570
C4770       C  0.20690531  0.36723311  0.88270439     0.02370
H4771       H  0.23723067  0.36606442  0.84322560     0.15350
H4772       H  0.17710081  0.35755954  0.88258603     0.15350
C4773       C  0.20576786  0.37332404  0.90286107     0.37000
C4774       C  0.20854872  0.35025280  0.82294216     0.36910
N4775       N  0.20486855  0.37820773  0.91901610    -0.43340
N4776       N  0.20945642  0.34534513  0.80679356    -0.43340
C4777       C  0.30263881  0.13708554  0.85488380     0.00250
C4778       C  0.30192656  0.11686408  0.85792214    -0.11630
C4779       C  0.28527763  0.10793257  0.86563741     0.02480
C4780       C  0.26881713  0.11930321  0.87045223     0.00160
C4781       C  0.26948713  0.13951473  0.86732958    -0.11570
C4782       C  0.28611501  0.14844278  0.85955819     0.02370
H4783       H  0.31457262  0.10802804  0.85450914     0.15350
H4784       H  0.25682960  0.14834061  0.87073145     0.15350
C4785       C  0.28552770  0.16914378  0.85588354     0.37000
C4786       C  0.28575264  0.08719312  0.86907901     0.36910
N4787       N  0.28504799  0.18574005  0.85298337    -0.43340
N4788       N  0.28610741  0.07055999  0.87177317    -0.43340
C4789       C  0.35468283  0.13766434  0.80360869     0.00250
C4790       C  0.35881632  0.11767838  0.80298743    -0.11630
C4791       C  0.36735588  0.10920964  0.78647663     0.02480
C4792       C  0.37166229  0.12078992  0.76992879     0.00160
C4793       C  0.36747013  0.14081163  0.77056846    -0.11570
C4794       C  0.35910288  0.14930449  0.78717998     0.02370
H4795       H  0.35570409  0.10870442  0.81564537     0.15350
H4796       H  0.37046339  0.14982006  0.75791335     0.15350
C4797       C  0.35468738  0.16986800  0.78675073     0.37000
C4798       C  0.37214208  0.08874513  0.78725579     0.36910
N4799       N  0.35122676  0.18636020  0.78643718    -0.43340
N4800       N  0.37587983  0.07232362  0.78787202    -0.43340
C4801       C  0.35573228  0.18754617  0.85661560     0.00250
C4802       C  0.35895644  0.20345217  0.84421177    -0.11630
C4803       C  0.36711380  0.22074111  0.85117908     0.02480
C4804       C  0.37245469  0.22239343  0.87103914     0.00160
C4805       C  0.36923310  0.20642696  0.88350373    -0.11570
C4806       C  0.36093901  0.18910671  0.87648995     0.02370
H4807       H  0.35471219  0.20247494  0.82898188     0.15350
H4808       H  0.37334142  0.20744717  0.89875813     0.15350
C4809       C  0.35844152  0.17302804  0.88982731     0.37000
C4810       C  0.36889717  0.23670291  0.83764019     0.36910
N4811       N  0.35639134  0.16015466  0.90053164    -0.43340
N4812       N  0.37007485  0.24915221  0.82634349    -0.43340
C4813       C  0.30223394  0.85162613  0.13986210     0.00250
C4814       C  0.30236448  0.85738014  0.12021358    -0.11630
C4815       C  0.28580690  0.86551505  0.11160321     0.02480
C4816       C  0.26860603  0.86785153  0.12270165     0.00160
C4817       C  0.26851483  0.86222430  0.14239817    -0.11570
C4818       C  0.28509862  0.85411952  0.15102079     0.02370
H4819       H  0.31554228  0.85569417  0.11162679     0.15350
H4820       H  0.25531634  0.86382919  0.15096639     0.15350
C4821       C  0.28390755  0.84780112  0.17109592     0.37000
C4822       C  0.28704717  0.87189087  0.09154549     0.36910
N4823       N  0.28296597  0.84275385  0.18718871    -0.43340
N4824       N  0.28801265  0.87698901  0.07547011    -0.43340
C4825       C  0.35396329  0.80021123  0.13817010     0.00250
C4826       C  0.37416039  0.79993743  0.13481228    -0.11630
C4827       C  0.38323576  0.78365752  0.12651109     0.02480
C4828       C  0.37201310  0.76725515  0.12125305     0.00160
C4829       C  0.35182655  0.76754927  0.12446966    -0.11570
C4830       C  0.34276799  0.78371377  0.13297805     0.02370
H4831       H  0.38288140  0.81256525  0.13858147     0.15350
H4832       H  0.34316001  0.75486587  0.12073770     0.15350
C4833       C  0.32214477  0.78256851  0.13698943     0.37000
C4834       C  0.40398705  0.78432287  0.12315586     0.36910
N4835       N  0.30561234  0.78165081  0.14015580    -0.43340
N4836       N  0.42063059  0.78480425  0.12053815    -0.43340
C4837       C  0.37192549  0.86867011  0.22342389     0.00250
C4838       C  0.36628292  0.84901878  0.22401317    -0.11630
C4839       C  0.35753853  0.84014323  0.20785041     0.02480
C4840       C  0.35442450  0.85098703  0.19063710     0.00160
C4841       C  0.36012777  0.87060799  0.19001550    -0.11570
C4842       C  0.36887988  0.87948399  0.20617307     0.02370
H4843       H  0.36837498  0.84068874  0.23729934     0.15350
H4844       H  0.35794461  0.87894851  0.17675188     0.15350
C4845       C  0.37514216  0.89949192  0.20446733     0.37000
C4846       C  0.35122135  0.82014928  0.20955468     0.36910
N4847       N  0.38015560  0.91552924  0.20311592    -0.43340
N4848       N  0.34614985  0.80412976  0.21090690    -0.43340
C4849       C  0.14055057  0.13867543  0.69144698     0.00250
C4850       C  0.14644971  0.14531767  0.70989166    -0.11630
C4851       C  0.13874960  0.13699172  0.72691153     0.02480
C4852       C  0.12494369  0.12187362  0.72545088     0.00160
C4853       C  0.11908867  0.11524807  0.70701232    -0.11570
C4854       C  0.12678728  0.12352188  0.69003281     0.02370
H4855       H  0.15711046  0.15692861  0.71095831     0.15350
H4856       H  0.10839575  0.10366281  0.70591743     0.15350
C4857       C  0.12023326  0.11642861  0.67130355     0.37000
C4858       C  0.14523720  0.14403772  0.74567302     0.36910
N4859       N  0.11497922  0.11079600  0.65627406    -0.43340
N4860       N  0.15045659  0.14964721  0.76072463    -0.43340
C4861       C  0.22257422  0.12022869  0.61974774     0.00250
C4862       C  0.20626598  0.10858207  0.62382605    -0.11630
C4863       C  0.18956028  0.11659576  0.63241658     0.02480
C4864       C  0.18908643  0.13662240  0.63719019     0.00160
C4865       C  0.20535378  0.14825040  0.63297972    -0.11570
C4866       C  0.22202131  0.14027277  0.62443964     0.02370
H4867       H  0.20656903  0.09320288  0.62020019     0.15350
H4868       H  0.20520668  0.16358296  0.63683135     0.15350
C4869       C  0.23866293  0.15282783  0.62153174     0.37000
C4870       C  0.17297642  0.10408081  0.63570547     0.36910
N4871       N  0.25197550  0.16290790  0.61921012    -0.43340
N4872       N  0.15970292  0.09403430  0.63837127    -0.43340
C4873       C  0.12297655  0.22384304  0.62332568     0.00250
C4874       C  0.14313037  0.22316051  0.62668379    -0.11630
C4875       C  0.15180123  0.20675368  0.63511926     0.02480
C4876       C  0.14022363  0.19054023  0.64031889     0.00160
C4877       C  0.12006168  0.19127536  0.63710367    -0.11570
C4878       C  0.11139419  0.20764805  0.62861855     0.02370
H4879       H  0.15211230  0.23559130  0.62286835     0.15350
H4880       H  0.11110087  0.17880333  0.64083951     0.15350
C4881       C  0.09072600  0.20707809  0.62477768     0.37000
C4882       C  0.17250781  0.20716123  0.63875890     0.36910
N4883       N  0.07415937  0.20662404  0.62173834    -0.43340
N4884       N  0.18910832  0.20746102  0.64162686    -0.43340
C4885       C  0.86909742  0.12415056  0.26724262     0.00250
C4886       C  0.84911108  0.12845902  0.26705169    -0.11630
C4887       C  0.83999368  0.13675146  0.28337390     0.02480
C4888       C  0.85093823  0.14080266  0.30036044     0.00160
C4889       C  0.87092393  0.13658259  0.30050598    -0.11570
C4890       C  0.88002987  0.12826898  0.28423452     0.02370
H4891       H  0.84064117  0.12553003  0.25401623     0.15350
H4892       H  0.87938746  0.13943341  0.31356782     0.15350
C4893       C  0.90043916  0.12341464  0.28568377     0.37000
C4894       C  0.81955007  0.14148524  0.28210341     0.36910
N4895       N  0.91680197  0.11956827  0.28682713    -0.43340
N4896       N  0.80315821  0.14525245  0.28112017    -0.43340
C4897       C  0.80057825  0.13792846  0.35298322     0.00250
C4898       C  0.80218752  0.11846190  0.35908252    -0.11630
C4899       C  0.78632039  0.10882404  0.36760904     0.02480
C4900       C  0.76861223  0.11883974  0.37037492     0.00160
C4901       C  0.76693932  0.13816813  0.36401077    -0.11570
C4902       C  0.78261354  0.14763969  0.35509412     0.02370
H4903       H  0.81589574  0.11083384  0.35725443     0.15350
H4904       H  0.75315774  0.14571920  0.36560690     0.15350
C4905       C  0.77945693  0.16678210  0.34704011     0.37000
C4906       C  0.78861200  0.08883906  0.37371952     0.36910
N4907       N  0.77658288  0.18194447  0.34028666    -0.43340
N4908       N  0.79036179  0.07279210  0.37856175    -0.43340
C4909       C  0.85191372  0.19017275  0.35406283     0.00250
C4910       C  0.87208094  0.18922839  0.35742896    -0.11630
C4911       C  0.88208507  0.20478578  0.36605522     0.02480
C4912       C  0.87201023  0.22198542  0.37099978     0.00160
C4913       C  0.85182435  0.22285222  0.36798272    -0.11570
C4914       C  0.84171432  0.20713994  0.35976066     0.02370
H4915       H  0.87999226  0.17607232  0.35367507     0.15350
H4916       H  0.84393371  0.23594939  0.37199259     0.15350
C4917       C  0.82100715  0.20917067  0.35702237     0.37000
C4918       C  0.90233521  0.20216512  0.37094850     0.36910
N4919       N  0.80439344  0.21117056  0.35516578    -0.43340
N4920       N  0.91845009  0.19971118  0.37518137    -0.43340
C4921       C  0.37194482  0.62053984  0.26949013     0.00250
C4922       C  0.36302740  0.63880717  0.26765653    -0.11630
C4923       C  0.35385270  0.64757881  0.28363102     0.02480
C4924       C  0.35393965  0.63820900  0.30193453     0.00160
C4925       C  0.36272374  0.61983952  0.30374918    -0.11570
C4926       C  0.37163448  0.61091333  0.28765038     0.02370
H4927       H  0.36283053  0.64599731  0.25355556     0.15350
H4928       H  0.36271163  0.61254806  0.31779440     0.15350
C4929       C  0.38064286  0.59209096  0.29012382     0.37000
C4930       C  0.34347718  0.66558794  0.28059137     0.36910
N4931       N  0.38786914  0.57699474  0.29205484    -0.43340
N4932       N  0.33491327  0.67983568  0.27788814    -0.43340
C4933       C  0.26923300  0.62174499  0.37148688     0.00250
C4934       C  0.28525336  0.60988321  0.36694162    -0.11630
C4935       C  0.30215144  0.61773024  0.35858821     0.02480
C4936       C  0.30318258  0.63788318  0.35439697     0.00160
C4937       C  0.28715112  0.64973861  0.35898721    -0.11570
C4938       C  0.27029193  0.64190305  0.36741423     0.02370
H4939       H  0.28465459  0.59443394  0.37019967     0.15350
H4940       H  0.28765946  0.66516783  0.35563312     0.15350
C4941       C  0.25406079  0.65478311  0.37104386     0.37000
C4942       C  0.31840372  0.60484697  0.35508770     0.36910
N4943       N  0.24109555  0.66514191  0.37399188    -0.43340
N4944       N  0.33139299  0.59449586  0.35222079    -0.43340
C4945       C  0.35409644  0.69043211  0.35299415     0.00250
C4946       C  0.35865649  0.69026061  0.37298986    -0.11630
C4947       C  0.36732303  0.70641031  0.38199288     0.02480
C4948       C  0.37157945  0.72325472  0.37093794     0.00160
C4949       C  0.36707378  0.72342689  0.35096448    -0.11570
C4950       C  0.35836307  0.70731598  0.34196666     0.02370
H4951       H  0.35568982  0.67732141  0.38157053     0.15350
H4952       H  0.37001983  0.73639723  0.34241797     0.15350
C4953       C  0.35330646  0.70894602  0.32159729     0.37000
C4954       C  0.37223005  0.70506967  0.40244505     0.36910
N4955       N  0.34939111  0.71060100  0.30526074    -0.43340
N4956       N  0.37611075  0.70402206  0.41885050    -0.43340
C4957       C  0.35385671  0.30217398  0.63910356     0.00250
C4958       C  0.35814474  0.30228027  0.61903542    -0.11630
C4959       C  0.36684515  0.28614712  0.60999746     0.02480
C4960       C  0.37131755  0.26939844  0.62109739     0.00160
C4961       C  0.36699457  0.26931666  0.64115342    -0.11570
C4962       C  0.35832282  0.28541778  0.65018226     0.02370
H4963       H  0.35492755  0.31514494  0.61044284     0.15350
H4964       H  0.37006508  0.25642323  0.64975620     0.15350
C4965       C  0.35350183  0.28403932  0.67067115     0.37000
C4966       C  0.37156787  0.28742065  0.58948895     0.36910
N4967       N  0.34968336  0.28294635  0.68709895    -0.43340
N4968       N  0.37530056  0.28842865  0.57303626    -0.43340
C4969       C  0.30140308  0.35284440  0.63947047     0.00250
C4970       C  0.28450433  0.35466256  0.65089673    -0.11630
C4971       C  0.26729076  0.36225317  0.64296799     0.02480
C4972       C  0.26687771  0.36839171  0.62328838     0.00160
C4973       C  0.28379625  0.36659538  0.61190014    -0.11570
C4974       C  0.30096777  0.35896901  0.61979557     0.02370
H4975       H  0.28467813  0.34980804  0.66596541     0.15350
H4976       H  0.28365960  0.37145635  0.59683211     0.15350
C4977       C  0.31812600  0.35820522  0.60760432     0.37000
C4978       C  0.25007454  0.36288058  0.65507355     0.36910
N4979       N  0.33189177  0.35759580  0.59785924    -0.43340
N4980       N  0.23625420  0.36335585  0.66474839    -0.43340
C4981       C  0.35354207  0.35372422  0.69086916     0.00250
C4982       C  0.37335519  0.35875166  0.69016403    -0.11630
C4983       C  0.38274742  0.36683857  0.70640166     0.02480
C4984       C  0.37231113  0.36991099  0.72393575     0.00160
C4985       C  0.35246336  0.36492836  0.72462332    -0.11570
C4986       C  0.34305402  0.35689107  0.70834392     0.02370
H4987       H  0.38148648  0.35654914  0.67675162     0.15350
H4988       H  0.34433530  0.36707441  0.73804406     0.15350
C4989       C  0.32283938  0.35138186  0.71019464     0.37000
C4990       C  0.40291589  0.37246505  0.70442274     0.36910
N4991       N  0.30662882  0.34699695  0.71164665    -0.43340
N4992       N  0.41909069  0.37693724  0.70285120    -0.43340
C4993       C  0.63745433  0.35556594  0.30417168     0.00250
C4994       C  0.63263948  0.34340992  0.28838973    -0.11630
C4995       C  0.62477148  0.35102944  0.27116836     0.02480
C4996       C  0.62142809  0.37128107  0.26948945     0.00160
C4997       C  0.62622183  0.38345607  0.28526041    -0.11570
C4998       C  0.63409190  0.37581929  0.30250642     0.02370
H4999       H  0.63539473  0.32788586  0.28938180     0.15350
H5000       H  0.62358682  0.39899442  0.28417538     0.15350
C5001       C  0.63799427  0.38903582  0.31844243     0.37000
C5002       C  0.62102450  0.33779454  0.25519526     0.36910
N5003       N  0.64118905  0.39964600  0.33118537    -0.43340
N5004       N  0.61800220  0.32715275  0.24243540    -0.43340
C5005       C  0.63656328  0.30345246  0.35552959     0.00250
C5006       C  0.63310430  0.30306428  0.37576220    -0.11630
C5007       C  0.62472801  0.28673521  0.38473317     0.02480
C5008       C  0.61962113  0.27032184  0.37340063     0.00160
C5009       C  0.62293600  0.27076029  0.35315883    -0.11570
C5010       C  0.63141767  0.28701715  0.34419487     0.02370
H5011       H  0.63683331  0.31565425  0.38458158     0.15350
H5012       H  0.61935026  0.25809978  0.34437478     0.15350
C5013       C  0.63550036  0.28604003  0.32351769     0.37000
C5014       C  0.62109777  0.28737973  0.40549077     0.36910
N5015       N  0.63875617  0.28524490  0.30694919    -0.43340
N5016       N  0.61822347  0.28785659  0.42213900    -0.43340
C5017       C  0.68964441  0.35375528  0.35536031     0.00250
C5018       C  0.70580464  0.35709522  0.34324036    -0.11630
C5019       C  0.72299242  0.36517324  0.35067351     0.02480
C5020       C  0.72420453  0.37029143  0.37064616     0.00160
C5021       C  0.70807568  0.36687950  0.38279347    -0.11570
C5022       C  0.69089241  0.35874263  0.37535676     0.02370
H5023       H  0.70508298  0.35310392  0.32792657     0.15350
H5024       H  0.70883257  0.37081163  0.39811860     0.15350
C5025       C  0.67456144  0.35627929  0.38842620     0.37000
C5026       C  0.73939715  0.36734101  0.33762782     0.36910
N5027       N  0.66147711  0.35424299  0.39889366    -0.43340
N5028       N  0.75253608  0.36909644  0.32717609    -0.43340
C5029       C  0.13865710  0.85361812  0.30205551     0.00250
C5030       C  0.15035471  0.85615916  0.28543165    -0.11630
C5031       C  0.14258739  0.86389559  0.26821009     0.02480
C5032       C  0.12278812  0.86944109  0.26756242     0.00160
C5033       C  0.11114890  0.86694123  0.28422814    -0.11570
C5034       C  0.11887226  0.85912995  0.30137683     0.02370
H5035       H  0.16551396  0.85174963  0.28581622     0.15350
H5036       H  0.09598974  0.87136424  0.28391305     0.15350
C5037       C  0.10632384  0.85747253  0.31823543     0.37000
C5038       C  0.15503287  0.86529525  0.25125555     0.36910
N5039       N  0.09625671  0.85610263  0.33172904    -0.43340
N5040       N  0.16501866  0.86642395  0.23767724    -0.43340
C5041       C  0.13850507  0.80226850  0.35365810     0.00250
C5042       C  0.13176179  0.80288443  0.37299426    -0.11630
C5043       C  0.12337657  0.78645397  0.38166657     0.02480
C5044       C  0.12205126  0.76888704  0.37107578     0.00160
C5045       C  0.12863091  0.76826125  0.35169236    -0.11570
C5046       C  0.13679029  0.78477137  0.34290533     0.02370
H5047       H  0.13267377  0.81638387  0.38118860     0.15350
H5048       H  0.12752894  0.75478382  0.34348408     0.15350
C5049       C  0.14374780  0.78323684  0.32305365     0.37000
C5050       C  0.11522405  0.78828782  0.40101014     0.36910
N5051       N  0.14926502  0.78203507  0.30712249    -0.43340
N5052       N  0.10842515  0.78995365  0.41638849    -0.43340
C5053       C  0.18946129  0.85435224  0.35465207     0.00250
C5054       C  0.20474044  0.84174550  0.35952077    -0.11630
C5055       C  0.22205436  0.84872240  0.36763831     0.02480
C5056       C  0.22452760  0.86892321  0.37104021     0.00160
C5057       C  0.20910907  0.88156184  0.36630481    -0.11570
C5058       C  0.19170322  0.87450154  0.35825516     0.02370
H5059       H  0.20327793  0.82627131  0.35662724     0.15350
H5060       H  0.21056797  0.89704183  0.36912654     0.15350
C5061       C  0.17621810  0.88818483  0.35442507     0.37000
C5062       C  0.23701800  0.83458682  0.37164212     0.36910
N5063       N  0.16383746  0.89917155  0.35129647    -0.43340
N5064       N  0.24844807  0.82264020  0.37477605    -0.43340
C5065       C  0.69109513  0.13633193  0.13842335     0.00250
C5066       C  0.68973772  0.11767099  0.13013777    -0.11630
C5067       C  0.70599610  0.10885885  0.12144380     0.02480
C5068       C  0.72394826  0.11884403  0.12087020     0.00160
C5069       C  0.72535512  0.13737818  0.12939465    -0.11570
C5070       C  0.70919343  0.14605748  0.13833417     0.02370
H5071       H  0.67587537  0.11009419  0.13024903     0.15350
H5072       H  0.73923528  0.14492942  0.12935605     0.15350
C5073       C  0.71182084  0.16443727  0.14821666     0.37000
C5074       C  0.70380002  0.08984182  0.11271089     0.36910
N5075       N  0.71421019  0.17899833  0.15638712    -0.43340
N5076       N  0.70208690  0.07459122  0.10570873    -0.43340
C5077       C  0.63822331  0.13682514  0.18875945     0.00250
C5078       C  0.63308758  0.11702810  0.18844184    -0.11630
C5079       C  0.62410046  0.10824394  0.20457053     0.02480
C5080       C  0.62023356  0.11930732  0.22154962     0.00160
C5081       C  0.62538796  0.13911268  0.22184769    -0.11570
C5082       C  0.63433496  0.14789905  0.20571787     0.02370
H5083       H  0.63585574  0.10846639  0.17540994     0.15350
H5084       H  0.62273497  0.14767895  0.23490180     0.15350
C5085       C  0.64003159  0.16809865  0.20723067     0.37000
C5086       C  0.61842221  0.08804930  0.20306069     0.36910
N5087       N  0.64458499  0.18428754  0.20842532    -0.43340
N5088       N  0.61389529  0.07185340  0.20187823    -0.43340
C5089       C  0.63923714  0.18777273  0.13642591     0.00250
C5090       C  0.61937063  0.18714154  0.13148834    -0.11630
C5091       C  0.61011107  0.20321827  0.12295806     0.02480
C5092       C  0.62078161  0.22039605  0.11922337     0.00160
C5093       C  0.64064046  0.22096320  0.12400775    -0.11570
C5094       C  0.64987867  0.20496642  0.13258530     0.02370
H5095       H  0.61108006  0.17396464  0.13419070     0.15350
H5096       H  0.64889117  0.23420423  0.12146402     0.15350
C5097       C  0.67002866  0.20707855  0.13811076     0.37000
C5098       C  0.58982736  0.20152907  0.11771965     0.36910
N5099       N  0.68617317  0.20913961  0.14243549    -0.43340
N5100       N  0.57355814  0.20018649  0.11354770    -0.43340
C5101       C  0.12250633  0.72283759  0.12289858     0.00250
C5102       C  0.12928515  0.72321539  0.14222456    -0.11630
C5103       C  0.13797094  0.70678009  0.15058522     0.02480
C5104       C  0.13998600  0.68951401  0.13953497     0.00160
C5105       C  0.13322850  0.68910531  0.12022653    -0.11570
C5106       C  0.12441684  0.70549858  0.11189828     0.02370
H5107       H  0.12806003  0.73650524  0.15071555     0.15350
H5108       H  0.13449106  0.67579511  0.11177071     0.15350
C5109       C  0.11679412  0.70389963  0.09231830     0.37000
C5110       C  0.14522206  0.70817354  0.17032574     0.36910
N5111       N  0.11066920  0.70261844  0.07663350    -0.43340
N5112       N  0.15102826  0.70926198  0.18614683    -0.43340
C5113       C  0.13969249  0.63811587  0.19073047     0.00250
C5114       C  0.14875047  0.64118078  0.20878718    -0.11630
C5115       C  0.14061430  0.63365113  0.22592166     0.02480
C5116       C  0.12333570  0.62258713  0.22499262     0.00160
C5117       C  0.11419884  0.61963056  0.20693827    -0.11570
C5118       C  0.12223393  0.62734945  0.18981956     0.02370
H5119       H  0.16201260  0.64974014  0.20950196     0.15350
H5120       H  0.10086883  0.61118052  0.20623314     0.15350
C5121       C  0.11254211  0.62383529  0.17145435     0.37000
C5122       C  0.14975457  0.63815570  0.24434797     0.36910
N5123       N  0.10481447  0.62104243  0.15670749    -0.43340
N5124       N  0.15699902  0.64203488  0.25909312    -0.43340
C5125       C  0.19080698  0.63694718  0.13872695     0.00250
C5126       C  0.20696994  0.64870465  0.13434399    -0.11630
C5127       C  0.22388916  0.64071696  0.12618433     0.02480
C5128       C  0.22485228  0.62053966  0.12220899     0.00160
C5129       C  0.20874852  0.60876044  0.12662615    -0.11570
C5130       C  0.19177720  0.61675827  0.13467336     0.02370
H5131       H  0.20648570  0.66416176  0.13759918     0.15350
H5132       H  0.20931708  0.59329331  0.12342360     0.15350
C5133       C  0.17534504  0.60402771  0.13791397     0.37000
C5134       C  0.24027430  0.65343549  0.12263943     0.36910
N5135       N  0.16218605  0.59381983  0.14053572    -0.43340
N5136       N  0.25339015  0.66363976  0.11979284    -0.43340
C5137       C  0.13793160  0.13666499  0.30371951     0.00250
C5138       C  0.13583037  0.11632899  0.30277043    -0.11630
C5139       C  0.12810513  0.10727505  0.28617116     0.02480
C5140       C  0.12239691  0.11865477  0.26998459     0.00160
C5141       C  0.12453764  0.13899634  0.27095777    -0.11570
C5142       C  0.13218567  0.14804892  0.28756431     0.02370
H5143       H  0.14004750  0.10748423  0.31517820     0.15350
H5144       H  0.12048711  0.14786973  0.25852332     0.15350
C5145       C  0.13459429  0.16895011  0.28730013     0.37000
C5146       C  0.12566340  0.08639012  0.28644242     0.36910
N5147       N  0.13642670  0.18570587  0.28706364    -0.43340
N5148       N  0.12380497  0.06963779  0.28665333    -0.43340
C5149       C  0.22513454  0.12135218  0.36960879     0.00250
C5150       C  0.20974383  0.10912726  0.36412776    -0.11630
C5151       C  0.19244435  0.11678308  0.35662591     0.02480
C5152       C  0.19040001  0.13715841  0.35413778     0.00160
C5153       C  0.20590005  0.14939075  0.35952711    -0.11570
C5154       C  0.22314257  0.14170196  0.36723828     0.02370
H5155       H  0.21107921  0.09352107  0.36617395     0.15350
H5156       H  0.20463276  0.16500119  0.35748900     0.15350
C5157       C  0.23873142  0.15496470  0.37212984     0.37000
C5158       C  0.17680000  0.10337121  0.35237180     0.36910
N5159       N  0.25118974  0.16560837  0.37609902    -0.43340
N5160       N  0.16432506  0.09257806  0.34889720    -0.43340
C5161       C  0.13667726  0.18727082  0.35644222     0.00250
C5162       C  0.13068419  0.20207012  0.34368127    -0.11630
C5163       C  0.12213588  0.21922523  0.35057764     0.02480
C5164       C  0.11952519  0.22212675  0.37089038     0.00160
C5165       C  0.12539470  0.20720077  0.38369911    -0.11570
C5166       C  0.13381857  0.18991337  0.37671355     0.02370
H5167       H  0.13296869  0.20035034  0.32809581     0.15350
H5168       H  0.12319878  0.20895316  0.39928883     0.15350
C5169       C  0.13879552  0.17496321  0.39064523     0.37000
C5170       C  0.11675545  0.23354332  0.33618961     0.36910
N5171       N  0.14285090  0.16302796  0.40184520    -0.43340
N5172       N  0.11240571  0.24442619  0.32408212    -0.43340
C5173       C  0.26759354  0.12112272  0.12252168     0.00250
C5174       C  0.26788468  0.12519783  0.14261150    -0.11630
C5175       C  0.28430833  0.13348079  0.15140816     0.02480
C5176       C  0.30099294  0.13764253  0.14003799     0.00160
C5177       C  0.30064752  0.13363036  0.11992613    -0.11570
C5178       C  0.28418653  0.12545464  0.11112137     0.02370
H5179       H  0.25510912  0.12211964  0.15141783     0.15350
H5180       H  0.31342505  0.13663503  0.11109672     0.15350
C5181       C  0.28497410  0.12104271  0.09050987     0.37000
C5182       C  0.28336094  0.13817500  0.17195307     0.36910
N5183       N  0.28558082  0.11755893  0.07398204    -0.43340
N5184       N  0.28261604  0.14189885  0.18842409    -0.43340
C5185       C  0.35337413  0.18830475  0.13866482     0.00250
C5186       C  0.35544003  0.20522889  0.14993100    -0.11630
C5187       C  0.36357081  0.22210245  0.14194760     0.02480
C5188       C  0.37052203  0.22201305  0.12253881     0.00160
C5189       C  0.36823062  0.20519274  0.11112777    -0.11570
C5190       C  0.35960486  0.18841759  0.11898021     0.02370
H5191       H  0.35015823  0.20540870  0.16486964     0.15350
H5192       H  0.37323419  0.20517324  0.09609879     0.15350
C5193       C  0.35761291  0.17144189  0.10668021     0.37000
C5194       C  0.36330147  0.23970280  0.15349467     0.36910
N5195       N  0.35588813  0.15786363  0.09680405    -0.43340
N5196       N  0.36268652  0.25384480  0.16268049    -0.43340
C5197       C  0.36993449  0.12087274  0.22436222     0.00250
C5198       C  0.35852682  0.13770176  0.22625973    -0.11630
C5199       C  0.34993219  0.14625121  0.20980933     0.02480
C5200       C  0.35287987  0.13795597  0.19119029     0.00160
C5201       C  0.36430870  0.12116567  0.18931394    -0.11570
C5202       C  0.37287961  0.11261974  0.20572152     0.02370
H5203       H  0.35623043  0.14403581  0.24059282     0.15350
H5204       H  0.36663084  0.11482730  0.17498273     0.15350
C5205       C  0.38499556  0.09563064  0.20309360     0.37000
C5206       C  0.33783528  0.16325783  0.21233886     0.36910
N5207       N  0.39476759  0.08205302  0.20105481    -0.43340
N5208       N  0.32806798  0.17684998  0.21430259    -0.43340
C5209       C  0.12092128  0.26746565  0.12146563     0.00250
C5210       C  0.12613638  0.28286397  0.10898303    -0.11630
C5211       C  0.13477566  0.29987075  0.11626447     0.02480
C5212       C  0.13828607  0.30179029  0.13649658     0.00160
C5213       C  0.13306082  0.28643941  0.14898247    -0.11570
C5214       C  0.12459354  0.26936838  0.14170790     0.02370
H5215       H  0.12330081  0.28167080  0.09345038     0.15350
H5216       H  0.13591325  0.28767700  0.16451437     0.15350
C5217       C  0.12058214  0.25381434  0.15531808     0.37000
C5218       C  0.13936571  0.31530568  0.10270894     0.36910
N5219       N  0.11731364  0.24142915  0.16629639    -0.43340
N5220       N  0.14314653  0.32763227  0.09182903    -0.43340
C5221       C  0.19067678  0.35287613  0.13815262     0.00250
C5222       C  0.20744650  0.34127287  0.13664913    -0.11630
C5223       C  0.22485395  0.34892702  0.12919775     0.02480
C5224       C  0.22560127  0.36851279  0.12295502     0.00160
C5225       C  0.20886422  0.38011236  0.12452400    -0.11570
C5226       C  0.19147835  0.37247785  0.13194438     0.02370
H5227       H  0.20700000  0.32626861  0.14157293     0.15350
H5228       H  0.20930082  0.39511688  0.11958614     0.15350
C5229       C  0.17448316  0.38485219  0.13234166     0.37000
C5230       C  0.24189696  0.33662450  0.12873555     0.36910
N5231       N  0.16084844  0.39474355  0.13267545    -0.43340
N5232       N  0.25557807  0.32679634  0.12838019    -0.43340
C5233       C  0.13644959  0.35451490  0.18693708     0.00250
C5234       C  0.13207432  0.37449070  0.18636411    -0.11630
C5235       C  0.12340814  0.38382233  0.20237726     0.02480
C5236       C  0.11912530  0.37311508  0.21945944     0.00160
C5237       C  0.12339034  0.35310898  0.21992564    -0.11570
C5238       C  0.13197566  0.34378132  0.20393388     0.02370
H5239       H  0.13530440  0.38278588  0.17327932     0.15350
H5240       H  0.12044187  0.34480382  0.23307224     0.15350
C5241       C  0.13680546  0.32338251  0.20569486     0.37000
C5242       C  0.11860453  0.40421666  0.20068687     0.36910
N5243       N  0.14064319  0.30703275  0.20709570    -0.43340
N5244       N  0.11479240  0.42057499  0.19932643    -0.43340
C5245       C  0.35326493  0.35262110  0.30221630     0.00250
C5246       C  0.35798844  0.34022962  0.28656493    -0.11630
C5247       C  0.36622025  0.34756493  0.26933282     0.02480
C5248       C  0.37001648  0.36772528  0.26756440     0.00160
C5249       C  0.36534632  0.38007861  0.28325261    -0.11570
C5250       C  0.35709115  0.37276838  0.30043933     0.02370
H5251       H  0.35496186  0.32476488  0.28770344     0.15350
H5252       H  0.36839088  0.39554519  0.28215950     0.15350
C5253       C  0.35331247  0.38621736  0.31622761     0.37000
C5254       C  0.36994541  0.33417054  0.25349527     0.36910
N5255       N  0.35020848  0.39701740  0.32883794    -0.43340
N5256       N  0.37298803  0.32340841  0.24083717    -0.43340
C5257       C  0.35561828  0.30321517  0.35599703     0.00250
C5258       C  0.34412275  0.28682964  0.36020556    -0.11630
C5259       C  0.35229920  0.27008255  0.36846228     0.02480
C5260       C  0.37240358  0.26956962  0.37284355     0.00160
C5261       C  0.38390372  0.28595649  0.36866512    -0.11570
C5262       C  0.37571538  0.30271362  0.36040047     0.02370
H5263       H  0.32873357  0.28698274  0.35665300     0.15350
H5264       H  0.39931288  0.28574032  0.37212279     0.15350
C5265       C  0.38813723  0.31938238  0.35719386     0.37000
C5266       C  0.33986672  0.25338506  0.37152905     0.36910
N5267       N  0.39810617  0.33272841  0.35460049    -0.43340
N5268       N  0.32986499  0.24003420  0.37397095    -0.43340
C5269       C  0.30225538  0.35313824  0.35473725     0.00250
C5270       C  0.30181443  0.37336491  0.35783275    -0.11630
C5271       C  0.28555200  0.38242883  0.36624025     0.02480
C5272       C  0.26909651  0.37120992  0.37154125     0.00160
C5273       C  0.26954165  0.35097311  0.36832932    -0.11570
C5274       C  0.28586502  0.34190296  0.36008687     0.02370
H5275       H  0.31441329  0.38209360  0.35397588     0.15350
H5276       H  0.25694154  0.34219547  0.37206210     0.15350
C5277       C  0.28513959  0.32113934  0.35675243     0.37000
C5278       C  0.28650960  0.40312104  0.36989672     0.36910
N5279       N  0.28458087  0.30448720  0.35417037    -0.43340
N5280       N  0.28727143  0.41972247  0.37274038    -0.43340
loop_ 
_geom_bond_atom_site_label_1 
_geom_bond_atom_site_label_2 
_geom_bond_distance 
_geom_bond_site_symmetry_2 
_ccdc_geom_bond_type 
C1            C2   1.405       .  A
C1            C6   1.404       .  A
C1         C5269   1.488       .  S
C2            C3   1.404       .  A
C2            H7   1.084       .  S
C3            C4   1.404       .  A
C3         C5257   1.486       .  S
C4            C5   1.404       .  A
C4            H8   1.084       .  S
C5            C6   1.405       .  A
C5         C5245   1.487       .  S
C6            H9   1.084       .  S
C10          C11   1.404       .  A
C10          C15   1.406       .  A
C10        C5212   1.486       .  S
C11          C12   1.402       .  A
C11          H16   1.084       .  S
C12          C13   1.402       .  A
C12        C5233   1.483       .  S
C13          C14   1.403       .  A
C13          H17   1.084       .  S
C14          C15   1.404       .  A
C14        C5221   1.483       .  S
C15          H18   1.083       .  S
C19          C20   1.403       .  A
C19          C24   1.402       .  A
C19        C5185   1.481       .  S
C20          C21   1.400       .  A
C20          H25   1.084       .  S
C21          C22   1.400       .  A
C21        C5200   1.475       .  S
C22          C23   1.404       .  A
C22          H26   1.084       .  S
C23          C24   1.404       .  A
C23        C5176   1.484       .  S
C24          H27   1.084       .  S
C28          C29   1.408       .  A
C28          C33   1.406       .  A
C28        C5161   1.492       .  S
C29          C30   1.407       .  A
C29          H34   1.083       .  S
C30          C31   1.402       .  A
C30        C5152   1.488       .  S
C31          C32   1.399       .  A
C31          H35   1.084       .  S
C32          C33   1.402       .  A
C32        C5137   1.484       .  S
C33          H36   1.084       .  S
C37          C38   1.405       .  A
C37          C42   1.408       .  A
C37        C5125   1.487       .  S
C38          C39   1.399       .  A
C38          H43   1.084       .  S
C39          C40   1.398       .  A
C39        C5113   1.472       .  S
C40          C41   1.401       .  A
C40          H44   1.084       .  S
C41          C42   1.405       .  A
C41        C5104   1.481       .  S
C42          H45   1.084       .  S
C46          C47   1.404       .  A
C46          C51   1.402       .  A
C46        C5065   1.481       .  S
C47          C48   1.406       .  A
C47          H52   1.084       .  S
C48          C49   1.405       .  A
C48        C5089   1.488       .  S
C49          C50   1.404       .  A
C49          H53   1.084       .  S
C50          C51   1.404       .  A
C50        C5077   1.485       .  S
C51          H54   1.084       .  S
C55          C56   1.406       .  A
C55          C60   1.405       .  A
C55        C5053   1.488       .  S
C56          C57   1.402       .  A
C56          H61   1.084       .  S
C57          C58   1.400       .  A
C57        C5041   1.481       .  S
C58          C59   1.402       .  A
C58          H62   1.084       .  S
C59          C60   1.403       .  A
C59        C5029   1.480       .  S
C60          H63   1.083       .  S
C64          C65   1.405       .  A
C64          C69   1.404       .  A
C64        C5017   1.487       .  S
C65          C66   1.405       .  A
C65          H70   1.084       .  S
C66          C67   1.405       .  A
C66        C5005   1.488       .  S
C67          C68   1.405       .  A
C67          H71   1.084       .  S
C68          C69   1.405       .  A
C68        C4993   1.489       .  S
C69          H72   1.083       .  S
C73          C74   1.404       .  A
C73          C78   1.405       .  A
C73        C4969   1.484       .  S
C74          C75   1.403       .  A
C74          H79   1.084       .  S
C75          C76   1.403       .  A
C75        C4957   1.486       .  S
C76          C77   1.404       .  A
C76          H80   1.084       .  S
C77          C78   1.406       .  A
C77        C4981   1.487       .  S
C78          H81   1.084       .  S
C82          C83   1.401       .  A
C82          C87   1.400       .  A
C82        C4924   1.477       .  S
C83          C84   1.404       .  A
C83          H88   1.084       .  S
C84          C85   1.407       .  A
C84        C4945   1.489       .  S
C85          C86   1.407       .  A
C85          H89   1.084       .  S
C86          C87   1.404       .  A
C86        C4936   1.489       .  S
C87          H90   1.084       .  S
C91          C92   1.404       .  A
C91          C96   1.402       .  A
C91        C4888   1.484       .  S
C92          C93   1.405       .  A
C92          H97   1.084       .  S
C93          C94   1.406       .  A
C93        C4909   1.489       .  S
C94          C95   1.405       .  A
C94          H98   1.083       .  S
C95          C96   1.401       .  A
C95        C4897   1.480       .  S
C96          H99   1.084       .  S
C100        C101   1.404       .  A
C100        C105   1.404       .  A
C100       C4876   1.484       .  S
C101        C102   1.401       .  A
C101        H106   1.084       .  S
C102        C103   1.400       .  A
C102       C4849   1.473       .  S
C103        C104   1.402       .  A
C103        H107   1.084       .  S
C104        C105   1.404       .  A
C104       C4864   1.482       .  S
C105        H108   1.084       .  S
C109        C110   1.402       .  A
C109        C114   1.401       .  A
C109       C4840   1.480       .  S
C110        C111   1.404       .  A
C110        H115   1.084       .  S
C111        C112   1.404       .  A
C111       C4825   1.486       .  S
C112        C113   1.403       .  A
C112        H116   1.084       .  S
C113        C114   1.402       .  A
C113       C4813   1.481       .  S
C114        H117   1.084       .  S
C118        C119   1.402       .  A
C118        C123   1.404       .  A
C118       C4801   1.483       .  S
C119        C120   1.400       .  A
C119        H124   1.084       .  S
C120        C121   1.403       .  A
C120       C4789   1.484       .  S
C121        C122   1.405       .  A
C121        H125   1.084       .  S
C122        C123   1.406       .  A
C122       C4777   1.487       .  S
C123        H126   1.083       .  S
C127        C128   1.405       .  A
C127        C132   1.402       .  A
C127       C4741   1.483       .  S
C128        C129   1.405       .  A
C128        H133   1.084       .  S
C129        C130   1.404       .  A
C129       C4768   1.485       .  S
C130        C131   1.401       .  A
C130        H134   1.084       .  S
C131        C132   1.401       .  A
C131       C4753   1.474       .  S
C132        H135   1.084       .  S
C136        C137   1.401       .  A
C136        C141   1.404       .  A
C136       C4705   1.480       .  S
C137        C138   1.403       .  A
C137        H142   1.084       .  S
C138        C139   1.405       .  A
C138       C4732   1.487       .  S
C139        C140   1.408       .  A
C139        H143   1.084       .  S
C140        C141   1.406       .  A
C140       C4717   1.493       .  S
C141        H144   1.083       .  S
C145        C146   1.407       .  A
C145        C150   1.407       .  A
C145       C4681   1.492       .  S
C146        C147   1.404       .  A
C146        H151   1.084       .  S
C147        C148   1.402       .  A
C147       C4693   1.483       .  S
C148        C149   1.401       .  A
C148        H152   1.084       .  S
C149        C150   1.405       .  A
C149       C4669   1.481       .  S
C150        H153   1.083       .  S
C154        C155   1.403       .  A
C154        C159   1.401       .  A
C154       C4633   1.479       .  S
C155        C156   1.404       .  A
C155        H160   1.084       .  S
C156        C157   1.402       .  A
C156       C4657   1.482       .  S
C157        C158   1.403       .  A
C157        H161   1.084       .  S
C158        C159   1.402       .  A
C158       C4645   1.480       .  S
C159        H162   1.084       .  S
C163        C164   1.404       .  A
C163        C168   1.404       .  A
C163       C4609   1.486       .  S
C164        C165   1.404       .  A
C164        H169   1.083       .  S
C165        C166   1.405       .  A
C165       C4621   1.488       .  S
C166        C167   1.404       .  A
C166        H170   1.084       .  S
C167        C168   1.404       .  A
C167       C4597   1.486       .  S
C168        H171   1.084       .  S
C172        C173   1.404       .  A
C172        C177   1.405       .  A
C172       C4585   1.487       .  S
C173        C174   1.402       .  A
C173        H178   1.084       .  S
C174        C175   1.402       .  A
C174       C4573   1.481       .  S
C175        C176   1.404       .  A
C175        H179   1.084       .  S
C176        C177   1.405       .  A
C176       C4561   1.487       .  S
C177        H180   1.084       .  S
C181        C182   1.402       .  A
C181        C186   1.405       .  A
C181       C4549   1.482       .  S
C182        C183   1.399       .  A
C182        H187   1.084       .  S
C183        C184   1.399       .  A
C183       C4537   1.472       .  S
C184        C185   1.404       .  A
C184        H188   1.084       .  S
C185        C186   1.405       .  A
C185       C4525   1.483       .  S
C186        H189   1.083       .  S
C190        C191   1.401       .  A
C190        C195   1.403       .  A
C190       C4504   1.477       .  S
C191        C192   1.401       .  A
C191        H196   1.084       .  S
C192        C193   1.403       .  A
C192       C4513   1.479       .  S
C193        C194   1.405       .  A
C193        H197   1.084       .  S
C194        C195   1.406       .  A
C194       C4492   1.489       .  S
C195        H198   1.084       .  S
C199        C200   1.406       .  A
C199        C204   1.407       .  A
C199       C4465   1.490       .  S
C200        C201   1.406       .  A
C200        H205   1.084       .  S
C201        C202   1.403       .  A
C201       C4477   1.482       .  S
C202        C203   1.401       .  A
C202        H206   1.084       .  S
C203        C204   1.404       .  A
C203       C4453   1.483       .  S
C204        H207   1.084       .  S
C208        C209   1.405       .  A
C208        C213   1.405       .  A
C208       C4429   1.487       .  S
C209        C210   1.402       .  A
C209        H214   1.084       .  S
C210        C211   1.403       .  A
C210       C4441   1.481       .  S
C211        C212   1.403       .  A
C211        H215   1.084       .  S
C212        C213   1.404       .  A
C212       C4417   1.483       .  S
C213        H216   1.084       .  S
C217        C218   1.405       .  A
C217        C222   1.405       .  A
C217       C4393   1.486       .  S
C218        C219   1.405       .  A
C218        H223   1.084       .  S
C219        C220   1.403       .  A
C219       C4405   1.486       .  S
C220        C221   1.402       .  A
C220        H224   1.083       .  S
C221        C222   1.403       .  A
C221       C4381   1.483       .  S
C222        H225   1.084       .  S
C226        C227   1.401       .  A
C226        C231   1.399       .  A
C226       C4348   1.475       .  S
C227        C228   1.404       .  A
C227        H232   1.084       .  S
C228        C229   1.404       .  A
C228       C4369   1.483       .  S
C229        C230   1.405       .  A
C229        H233   1.083       .  S
C230        C231   1.404       .  A
C230       C4357   1.485       .  S
C231        H234   1.084       .  S
C235        C236   1.406       .  A
C235        C240   1.404       .  A
C235       C4333   1.489       .  S
C236        C237   1.407       .  A
C236        H241   1.083       .  S
C237        C238   1.406       .  A
C237       C4321   1.490       .  S
C238        C239   1.402       .  A
C238        H242   1.084       .  S
C239        C240   1.399       .  A
C239       C4312   1.479       .  S
C240        H243   1.084       .  S
C244        C245   1.404       .  A
C244        C249   1.405       .  A
C244       C4273   1.488       .  S
C245        C246   1.405       .  A
C245        H250   1.084       .  S
C246        C247   1.405       .  A
C246       C4297   1.489       .  S
C247        C248   1.404       .  A
C247        H251   1.083       .  S
C248        C249   1.406       .  A
C248       C4285   1.489       .  S
C249        H252   1.084       .  S
C253        C254   1.408       .  A
C253        C258   1.407       .  A
C253       C4249   1.499       .  S
C254        C255   1.403       .  A
C254        H259   1.083       .  S
C255        C256   1.404       .  A
C255       C4696   1.486       .  S
C256        C257   1.406       .  A
C256        H260   1.084       .  S
C257        C258   1.406       .  A
C257       C4261   1.491       .  S
C258        H261   1.082       .  S
C262        C263   1.403       .  A
C262        C267   1.408       .  A
C262       C4225   1.491       .  S
C263        C264   1.399       .  A
C263        H268   1.084       .  S
C264        C265   1.402       .  A
C264       C4660   1.479       .  S
C265        C266   1.408       .  A
C265        H269   1.081       .  S
C266        C267   1.413       .  A
C266       C4237   1.505       .  S
C267        H270   1.082       .  S
C271        C272   1.403       .  A
C271        C276   1.401       .  A
C271       C4213   1.480       .  S
C272        C273   1.405       .  A
C272        H277   1.084       .  S
C273        C274   1.404       .  A
C273       C4804   1.488       .  S
C274        C275   1.406       .  A
C274        H278   1.083       .  S
C275        C276   1.407       .  A
C275       C4204   1.492       .  S
C276        H279   1.084       .  S
C280        C281   1.406       .  A
C280        C285   1.403       .  A
C280       C4180   1.486       .  S
C281        C282   1.405       .  A
C281        H286   1.083       .  S
C282        C283   1.403       .  A
C282       C4765   1.485       .  S
C283        C284   1.402       .  A
C283        H287   1.084       .  S
C284        C285   1.401       .  A
C284       C4189   1.478       .  S
C285        H288   1.084       .  S
C289        C290   1.408       .  A
C289        C294   1.411       .  A
C289       C4165   1.504       .  S
C290        C291   1.402       .  A
C290        H295   1.081       .  S
C291        C292   1.398       .  A
C291       C5188   1.480       .  S
C292        C293   1.403       .  A
C292        H296   1.083       .  S
C293        C294   1.407       .  A
C293       C4153   1.492       .  S
C294        H297   1.083       .  S
C298        C299   1.403       .  A
C298        C303   1.403       .  A
C298       C4129   1.485       .  S
C299        C300   1.404       .  A
C299        H304   1.084       .  S
C300        C301   1.404       .  A
C300       C5224   1.482       .  S
C301        C302   1.404       .  A
C301        H305   1.084       .  S
C302        C303   1.402       .  A
C302       C4144   1.485       .  S
C303        H306   1.084       .  S
O307       Ni315   1.919   1_554  S
O307        C317   1.281       .  A
O308       Ni315   1.922       .  S
O308        C318   1.282       .  A
O309       Ni315   1.913   1_554  S
O309        C319   1.281       .  A
O310       Ni315   1.918       .  S
O310        C320   1.281       .  A
O311       Ni316   1.917       .  S
O311        C320   1.282       .  A
O312       Ni316   1.915   1_554  S
O312        C319   1.281       .  A
O313       Ni316   1.910       .  S
O313        C318   1.280       .  A
O314       Ni316   1.917   1_554  S
O314        C317   1.282       .  A
Ni315      Ni316   2.389       .  S
C317       C4156   1.483       .  S
C318       C4177   1.476       .  S
C319       C4132   1.473       .  S
C320       C4201   1.481       .  S
C321        C322   1.400       .  A
C321        C326   1.403       .  A
C321       C4105   1.481       .  S
C322        C323   1.403       .  A
C322        H327   1.084       .  S
C323        C324   1.405       .  A
C323       C4600   1.486       .  S
C324        C325   1.409       .  A
C324        H328   1.083       .  S
C325        C326   1.407       .  A
C325       C4117   1.499       .  S
C326        H329   1.082       .  S
C330        C331   1.408       .  A
C330        C335   1.406       .  A
C330       C4081   1.494       .  S
C331        C332   1.404       .  A
C331        H336   1.083       .  S
C332        C333   1.403       .  A
C332       C4996   1.488       .  S
C333        C334   1.403       .  A
C333        H337   1.084       .  S
C334        C335   1.403       .  A
C334       C4093   1.483       .  S
C335        H338   1.083       .  S
C339        C340   1.407       .  A
C339        C344   1.405       .  A
C339       C4057   1.489       .  S
C340        C341   1.407       .  A
C340        H345   1.083       .  S
C341        C342   1.404       .  A
C341       C5248   1.488       .  S
C342        C343   1.399       .  A
C342        H346   1.084       .  S
C343        C344   1.399       .  A
C343       C4072   1.476       .  S
C344        H347   1.084       .  S
C348        C349   1.404       .  A
C348        C353   1.407       .  A
C348       C4036   1.489       .  S
C349        C350   1.398       .  A
C349        H354   1.083       .  S
C350        C351   1.399       .  A
C350       C4921   1.475       .  S
C351        C352   1.406       .  A
C351        H355   1.084       .  S
C352        C353   1.407       .  A
C352       C4045   1.494       .  S
C353        H356   1.083       .  S
O357       Ni365   1.912       .  S
O357        C367   1.280       .  A
O358       Ni365   1.918       .  S
O358        C368   1.280       .  A
O359       Ni365   1.920       .  S
O359        C369   1.283       .  A
O360       Ni365   1.916       .  S
O360        C370   1.280       .  A
O361       Ni366   1.915       .  S
O361        C370   1.281       .  A
O362       Ni366   1.909       .  S
O362        C369   1.279       .  A
O363       Ni366   1.916       .  S
O363        C368   1.280       .  A
O364       Ni366   1.919       .  S
O364        C367   1.282       .  A
Ni365      Ni366   2.391       .  S
C367       C4021   1.478       .  S
C368       C4069   1.470       .  S
C369       C4033   1.480       .  S
C370       C4141   1.475       .  S
O371       Ni379   1.912       .  S
O371        C381   1.282       .  A
O372       Ni379   1.907       .  S
O372        C382   1.279       .  A
O373       Ni379   1.918       .  S
O373        C383   1.281       .  A
O374       Ni379   1.917       .  S
O374        C384   1.282       .  A
O375       Ni380   1.918       .  S
O375        C384   1.281       .  A
O376       Ni380   1.917       .  S
O376        C383   1.281       .  A
O377       Ni380   1.925       .  S
O377        C382   1.283       .  A
O378       Ni380   1.921       .  S
O378        C381   1.282       .  A
Ni379      Ni380   2.387       .  S
C381       C4168   1.487       .  S
C382       C4084   1.482       .  S
C383       C4060   1.477       .  S
C384       C4009   1.483       .  S
C385        C386   1.407       .  A
C385        C390   1.410       .  A
C385       C3997   1.497       .  S
C386        C387   1.402       .  A
C386        H391   1.083       .  S
C387        C388   1.400       .  A
C387       C4309   1.481       .  S
C388        C389   1.405       .  A
C388        H392   1.084       .  S
C389        C390   1.406       .  A
C389       C3985   1.488       .  S
C390        H393   1.083       .  S
C394        C395   1.401       .  A
C394        C399   1.403       .  A
C394       C3961   1.480       .  S
C395        C396   1.402       .  A
C395        H400   1.084       .  S
C396        C397   1.404       .  A
C396       C4576   1.482       .  S
C397        C398   1.407       .  A
C397        H401   1.083       .  S
C398        C399   1.408       .  A
C398       C3973   1.494       .  S
C399        H402   1.084       .  S
C403        C404   1.407       .  A
C403        C408   1.406       .  A
C403       C3937   1.495       .  S
C404        C405   1.404       .  A
C404        H409   1.083       .  S
C405        C406   1.402       .  A
C405       C4984   1.489       .  S
C406        C407   1.406       .  A
C406        H410   1.082       .  S
C407        C408   1.407       .  A
C407       C3949   1.495       .  S
C408        H411   1.082       .  S
C412        C413   1.399       .  A
C412        C417   1.401       .  A
C412       C3913   1.478       .  S
C413        C414   1.403       .  A
C413        H418   1.084       .  S
C414        C415   1.406       .  A
C414       C4396   1.487       .  S
C415        C416   1.411       .  A
C415        H419   1.083       .  S
C416        C417   1.407       .  A
C416       C3928   1.500       .  S
C417        H420   1.082       .  S
O421       Ni429   1.912       .  S
O421        C431   1.280       .  A
O422       Ni429   1.911       .  S
O422        C432   1.279       .  A
O423       Ni429   1.913       .  S
O423        C433   1.281       .  A
O424       Ni429   1.921       .  S
O424        C434   1.283       .  A
O425       Ni430   1.913       .  S
O425        C434   1.280       .  A
O426       Ni430   1.918       .  S
O426        C433   1.282       .  A
O427       Ni430   1.920       .  S
O427        C432   1.282       .  A
O428       Ni430   1.917       .  S
O428        C431   1.280       .  A
Ni429      Ni430   2.390       .  S
C431       C4192   1.470       .  S
C432       C3916   1.470       .  S
C433       C3952   1.479       .  S
C434       C4240   1.486       .  S
O435       Ni443   1.915       .  S
O435        C445   1.279       .  A
O436       Ni443   1.913       .  S
O436        C446   1.280       .  A
O437       Ni443   1.929       .  S
O437        C447   1.284       .  A
O438       Ni443   1.922       .  S
O438        C448   1.283       .  A
O439       Ni444   1.916       .  S
O439        C448   1.281       .  A
O440       Ni444   1.909       .  S
O440        C447   1.279       .  A
O441       Ni444   1.921       .  S
O441        C446   1.281       .  A
O442       Ni444   1.920       .  S
O442        C445   1.282       .  A
Ni443      Ni444   2.390       .  S
C445       C4216   1.472       .  S
C446       C3964   1.471       .  S
C447       C3940   1.482       .  S
C448       C4252   1.485       .  S
C449        C450   1.410       .  A
C449        C454   1.411       .  A
C449       C3901   1.505       .  S
C450        C451   1.403       .  A
C450        H455   1.081       .  S
C451        C452   1.403       .  A
C451       C4456   1.484       .  S
C452        C453   1.404       .  A
C452        H456   1.082       .  S
C453        C454   1.406       .  A
C453       C3889   1.497       .  S
C454        H457   1.082       .  S
C458        C459   1.406       .  A
C458        C463   1.408       .  A
C458       C3877   1.493       .  S
C459        C460   1.402       .  A
C459        H464   1.083       .  S
C460        C461   1.402       .  A
C460       C3865   1.487       .  S
C461        C462   1.405       .  A
C461        H465   1.083       .  S
C462        C463   1.408       .  A
C462       C4288   1.492       .  S
C463        H466   1.083       .  S
C467        C468   1.407       .  A
C467        C472   1.407       .  A
C467       C4012   1.494       .  S
C468        C469   1.404       .  A
C468        H473   1.082       .  S
C469        C470   1.403       .  A
C469       C5092   1.486       .  S
C470        C471   1.403       .  A
C470        H474   1.084       .  S
C471        C472   1.404       .  A
C471       C3853   1.489       .  S
C472        H475   1.083       .  S
C476        C477   1.406       .  A
C476        C481   1.406       .  A
C476       C3841   1.491       .  S
C477        C478   1.403       .  A
C477        H482   1.083       .  S
C478        C479   1.403       .  A
C478       C4720   1.486       .  S
C479        C480   1.402       .  A
C479        H483   1.084       .  S
C480        C481   1.403       .  A
C480       C3832   1.482       .  S
C481        H484   1.083       .  S
O485       Ni493   1.913       .  S
O485        C495   1.280       .  A
O486       Ni493   1.913   1_554  S
O486        C496   1.281       .  A
O487       Ni493   1.917       .  S
O487        C497   1.281       .  A
O488       Ni493   1.918   1_554  S
O488        C498   1.281       .  A
O489       Ni494   1.914   1_554  S
O489        C498   1.280       .  A
O490       Ni494   1.916       .  S
O490        C497   1.281       .  A
O491       Ni494   1.921   1_554  S
O491        C496   1.282       .  A
O492       Ni494   1.921       .  S
O492        C495   1.281       .  A
Ni493      Ni494   2.389       .  S
C495       C3868   1.475       .  S
C496       C3856   1.481       .  S
C497       C4264   1.475       .  S
C498       C3829   1.473       .  S
C499        C500   1.407       .  A
C499        C504   1.407       .  A
C499       C3817   1.497       .  S
C500        C501   1.401       .  A
C500        H505   1.083       .  S
C501        C502   1.401       .  A
C501       C5128   1.484       .  S
C502        C503   1.406       .  A
C502        H506   1.083       .  S
C503        C504   1.407       .  A
C503       C4024   1.492       .  S
C504        H507   1.081       .  S
C508        C509   1.406       .  A
C508        C513   1.405       .  A
C508       C3793   1.491       .  S
C509        C510   1.405       .  A
C509        H514   1.083       .  S
C510        C511   1.404       .  A
C510       C3805   1.487       .  S
C511        C512   1.402       .  A
C511        H515   1.084       .  S
C512        C513   1.401       .  A
C512       C3781   1.482       .  S
C513        H516   1.083       .  S
C517        C518   1.409       .  A
C517        C522   1.409       .  A
C517       C3757   1.501       .  S
C518        C519   1.401       .  A
C518        H523   1.083       .  S
C519        C520   1.399       .  A
C519       C4828   1.482       .  S
C520        C521   1.402       .  A
C520        H524   1.084       .  S
C521        C522   1.407       .  A
C521       C3769   1.487       .  S
C522        H525   1.080       .  S
O526       Ni534   1.924   1_554  S
O526        C536   1.283       .  A
O527       Ni534   1.917       .  S
O527        C537   1.281       .  A
O528       Ni534   1.920   1_554  S
O528        C538   1.282       .  A
O529       Ni534   1.919       .  S
O529        C539   1.281       .  A
O530       Ni535   1.917       .  S
O530        C539   1.281       .  A
O531       Ni535   1.919   1_554  S
O531        C538   1.282       .  A
O532       Ni535   1.913       .  S
O532        C537   1.281       .  A
O533       Ni535   1.912   1_554  S
O533        C536   1.280       .  A
Ni534      Ni535   2.387       .  S
C536       C3820   1.485       .  S
C537       C3796   1.480       .  S
C538       C3760   1.489       .  S
C539       C4228   1.478       .  S
C540        C541   1.402       .  A
C540        C545   1.407       .  A
C540       C3733   1.490       .  S
C541        C542   1.397       .  A
C541        H546   1.084       .  S
C542        C543   1.400       .  A
C542       C4345   1.474       .  S
C543        C544   1.408       .  A
C543        H547   1.083       .  S
C544        C545   1.410       .  A
C544       C3748   1.498       .  S
C545        H548   1.082       .  S
C549        C550   1.402       .  A
C549        C554   1.401       .  A
C549       C3709   1.479       .  S
C550        C551   1.405       .  A
C550        H555   1.084       .  S
C551        C552   1.406       .  A
C551       C4489   1.490       .  S
C552        C553   1.407       .  A
C552        H556   1.083       .  S
C553        C554   1.407       .  A
C553       C3721   1.492       .  S
C554        H557   1.084       .  S
O558       Ni566   1.921   1_554  S
O558        C568   1.282       .  A
O559       Ni566   1.921       .  S
O559        C569   1.282       .  A
O560       Ni566   1.922   1_554  S
O560        C570   1.282       .  A
O561       Ni566   1.914       .  S
O561        C571   1.280       .  A
O562       Ni567   1.922       .  S
O562        C571   1.283       .  A
O563       Ni567   1.916   1_554  S
O563        C570   1.281       .  A
O564       Ni567   1.925       .  S
O564        C569   1.282       .  A
O565       Ni567   1.917   1_554  S
O565        C568   1.281       .  A
Ni566      Ni567   2.387       .  S
C568       C3745   1.482       .  S
C569       C3988   1.482       .  S
C570       C3724   1.482       .  S
C571       C3697   1.490       .  S
O572       Ni580   1.910       .  S
O572        C582   1.280       .  A
O573       Ni580   1.912       .  S
O573        C583   1.281       .  A
O574       Ni580   1.918       .  S
O574        C584   1.282       .  A
O575       Ni580   1.921       .  S
O575        C585   1.281       .  A
O576       Ni581   1.915       .  S
O576        C585   1.280       .  A
O577       Ni581   1.914       .  S
O577        C584   1.281       .  A
O578       Ni581   1.920       .  S
O578        C583   1.282       .  A
O579       Ni581   1.920       .  S
O579        C582   1.282       .  A
Ni580      Ni581   2.389       .  S
C582       C3772   1.474       .  S
C583       C4120   1.480       .  S
C584       C4048   1.483       .  S
C585       C3712   1.471       .  S
O586       Ni594   1.913       .  S
O586        C596   1.280       .  A
O587       Ni594   1.917       .  S
O587        C597   1.281       .  A
O588       Ni594   1.921       .  S
O588        C598   1.282       .  A
O589       Ni594   1.913       .  S
O589        C599   1.281       .  A
O590       Ni595   1.916       .  S
O590        C599   1.281       .  A
O591       Ni595   1.913       .  S
O591        C598   1.279       .  A
O592       Ni595   1.916       .  S
O592        C597   1.280       .  A
O593       Ni595   1.921       .  S
O593        C596   1.282       .  A
Ni594      Ni595   2.391       .  S
C596       C3736   1.478       .  S
C597       C4096   1.472       .  S
C598       C4108   1.472       .  S
C599       C3844   1.480       .  S
C600        C601   1.410       .  A
C600        C605   1.404       .  A
C600       C3685   1.499       .  S
C601        C602   1.410       .  A
C601        H606   1.079       .  S
C602        C603   1.409       .  A
C602       C3700   1.506       .  S
C603        C604   1.402       .  A
C603        H607   1.082       .  S
C604        C605   1.401       .  A
C604       C3673   1.486       .  S
C605        H608   1.083       .  S
O609       Ni617   1.921       .  S
O609        C619   1.282       .  A
O610       Ni617   1.922       .  S
O610        C620   1.282       .  A
O611       Ni617   1.921       .  S
O611        C621   1.283       .  A
O612       Ni617   1.921       .  S
O612        C622   1.281       .  A
O613       Ni618   1.919       .  S
O613        C622   1.282       .  A
O614       Ni618   1.919       .  S
O614        C621   1.282       .  A
O615       Ni618   1.915       .  S
O615        C620   1.280       .  A
O616       Ni618   1.919       .  S
O616        C619   1.281       .  A
Ni617      Ni618   2.387       .  S
C619       C3688   1.484       .  S
C620       C3976   1.482       .  S
C621       C3904   1.492       .  S
C622       C3880   1.480       .  S
O623       Ni631   1.915       .  S
O623        C633   1.280       .  A
O624       Ni631   1.916       .  S
O624        C634   1.282       .  A
O625       Ni631   1.920       .  S
O625        C635   1.282       .  A
O626       Ni631   1.917       .  S
O626        C636   1.281       .  A
O627       Ni632   1.917       .  S
O627        C636   1.281       .  A
O628       Ni632   1.914       .  S
O628        C635   1.281       .  A
O629       Ni632   1.914       .  S
O629        C634   1.280       .  A
O630       Ni632   1.918       .  S
O630        C633   1.282       .  A
Ni631      Ni632   2.388       .  S
C633       C4000   1.480       .  S
C634       C3925   1.480       .  S
C635       C3892   1.484       .  S
C636       C3808   1.478       .  S
C637        C638   1.402       .  A
C637        C642   1.402       .  A
C637       C3676   1.479       .  S
C638        C639   1.404       .  A
C638        H643   1.084       .  S
C639        C640   1.405       .  A
C639       C3649   1.486       .  S
C640        C641   1.402       .  A
C640        H644   1.084       .  S
C641        C642   1.403       .  A
C641       C3661   1.478       .  S
C642        H645   1.084       .  S
C646        C647   1.402       .  A
C646        C651   1.403       .  A
C646       C3637   1.484       .  S
C647        C648   1.401       .  A
C647        H652   1.084       .  S
C648        C649   1.404       .  A
C648       C3784   1.483       .  S
C649        C650   1.406       .  A
C649        H653   1.084       .  S
C650        C651   1.404       .  A
C650       C3625   1.487       .  S
C651        H654   1.083       .  S
C655        C656   1.403       .  A
C655        C660   1.404       .  A
C655       C3601   1.488       .  S
C656        C657   1.401       .  A
C656        H661   1.084       .  S
C657        C658   1.403       .  A
C657       C4552   1.484       .  S
C658        C659   1.405       .  A
C658        H662   1.083       .  S
C659        C660   1.406       .  A
C659       C3613   1.491       .  S
C660        H663   1.082       .  S
C664        C665   1.400       .  A
C664        C669   1.404       .  A
C664       C3589   1.479       .  S
C665        C666   1.401       .  A
C665        H670   1.084       .  S
C666        C667   1.403       .  A
C666       C4516   1.478       .  S
C667        C668   1.406       .  A
C667        H671   1.084       .  S
C668        C669   1.407       .  A
C668       C3577   1.492       .  S
C669        H672   1.083       .  S
C673        C674   1.408       .  A
C673        C678   1.409       .  A
C673       C3553   1.497       .  S
C674        C675   1.404       .  A
C674        H679   1.084       .  S
C675        C676   1.401       .  A
C675       C4564   1.486       .  S
C676        C677   1.401       .  A
C676        H680   1.084       .  S
C677        C678   1.406       .  A
C677       C3568   1.483       .  S
C678        H681   1.083       .  S
C682        C683   1.405       .  A
C682        C687   1.402       .  A
C682       C3529   1.484       .  S
C683        C684   1.408       .  A
C683        H688   1.084       .  S
C684        C685   1.407       .  A
C684       C5056   1.494       .  S
C685        C686   1.404       .  A
C685        H689   1.083       .  S
C686        C687   1.400       .  A
C686       C3541   1.481       .  S
C687        H690   1.084       .  S
C691        C692   1.406       .  A
C691        C696   1.404       .  A
C691       C3505   1.486       .  S
C692        C693   1.403       .  A
C692        H697   1.083       .  S
C693        C694   1.402       .  A
C693       C3517   1.482       .  S
C694        C695   1.401       .  A
C694        H698   1.084       .  S
C695        C696   1.402       .  A
C695       C4837   1.481       .  S
C696        H699   1.084       .  S
C700        C701   1.405       .  A
C700        C705   1.410       .  A
C700       C3481   1.497       .  S
C701        C702   1.400       .  A
C701        H706   1.083       .  S
C702        C703   1.399       .  A
C702       C5149   1.483       .  S
C703        C704   1.408       .  A
C703        H707   1.083       .  S
C704        C705   1.410       .  A
C704       C3493   1.503       .  S
C705        H708   1.079       .  S
C709        C710   1.401       .  A
C709        C714   1.405       .  A
C709       C3457   1.489       .  S
C710        C711   1.399       .  A
C710        H715   1.084       .  S
C711        C712   1.401       .  A
C711       C5197   1.476       .  S
C712        C713   1.409       .  A
C712        H716   1.081       .  S
C713        C714   1.412       .  A
C713       C3469   1.504       .  S
C714        H717   1.082       .  S
O718       Ni726   1.913       .  S
O718        C728   1.280       .  A
O719       Ni726   1.917   1_545  S
O719        C729   1.281       .  A
O720       Ni726   1.918       .  S
O720        C730   1.281       .  A
O721       Ni726   1.912   1_545  S
O721        C731   1.281       .  A
O722       Ni727   1.922   1_545  S
O722        C731   1.282       .  A
O723       Ni727   1.919       .  S
O723        C730   1.280       .  A
O724       Ni727   1.917   1_545  S
O724        C729   1.282       .  A
O725       Ni727   1.915       .  S
O725        C728   1.281       .  A
Ni726      Ni727   2.389       .  S
C728       C3508   1.476       .  S
C729       C3484   1.481       .  S
C730       C3532   1.476       .  S
C731       C3460   1.479       .  S
C732        C733   1.404       .  A
C732        C737   1.405       .  A
C732       C3448   1.488       .  S
C733        C734   1.403       .  A
C733        H738   1.084       .  S
C734        C735   1.403       .  A
C734       C4960   1.487       .  S
C735        C736   1.407       .  A
C735        H739   1.082       .  S
C736        C737   1.406       .  A
C736       C3433   1.492       .  S
C737        H740   1.084       .  S
C741        C742   1.407       .  A
C741        C746   1.406       .  A
C741       C3421   1.489       .  S
C742        C743   1.403       .  A
C742        H747   1.083       .  S
C743        C744   1.404       .  A
C743       C3412   1.488       .  S
C744        C745   1.402       .  A
C744        H748   1.084       .  S
C745        C746   1.404       .  A
C745       C5260   1.485       .  S
C746        H749   1.083       .  S
C750        C751   1.415       .  A
C750        C755   1.414       .  A
C750       C3385   1.515       .  S
C751        C752   1.404       .  A
C751        H756   1.081       .  S
C752        C753   1.400       .  A
C752       C5008   1.487       .  S
C753        C754   1.400       .  A
C753        H757   1.084       .  S
C754        C755   1.407       .  A
C754       C3397   1.488       .  S
C755        H758   1.079       .  S
O759       Ni767   1.916       .  S
O759        C769   1.280       .  A
O760       Ni767   1.920       .  S
O760        C770   1.281       .  A
O761       Ni767   1.920       .  S
O761        C771   1.281       .  A
O762       Ni767   1.928       .  S
O762        C772   1.284       .  A
O763       Ni768   1.910       .  S
O763        C772   1.279       .  A
O764       Ni768   1.917       .  S
O764        C771   1.283       .  A
O765       Ni768   1.921       .  S
O765        C770   1.282       .  A
O766       Ni768   1.919       .  S
O766        C769   1.281       .  A
Ni767      Ni768   2.386       .  S
C769       C3373   1.473       .  S
C770       C3424   1.479       .  S
C771       C3388   1.493       .  S
C772       C3472   1.491       .  S
O773       Ni781   1.912       .  S
O773        C783   1.281       .  A
O774       Ni781   1.909       .  S
O774        C784   1.279       .  A
O775       Ni781   1.911       .  S
O775        C785   1.280       .  A
O776       Ni781   1.917       .  S
O776        C786   1.281       .  A
O777       Ni782   1.921       .  S
O777        C786   1.281       .  A
O778       Ni782   1.918       .  S
O778        C785   1.282       .  A
O779       Ni782   1.923       .  S
O779        C784   1.283       .  A
O780       Ni782   1.920       .  S
O780        C783   1.282       .  A
Ni781      Ni782   2.387       .  S
C783       C3436   1.479       .  S
C784       C3496   1.488       .  S
C785       C3361   1.483       .  S
C786       C3409   1.479       .  S
C787        C788   1.401       .  A
C787        C792   1.401       .  A
C787       C3349   1.481       .  S
C788        C789   1.402       .  A
C788        H793   1.084       .  S
C789        C790   1.405       .  A
C789       C4408   1.483       .  S
C790        C791   1.407       .  A
C790        H794   1.084       .  S
C791        C792   1.405       .  A
C791       C3337   1.492       .  S
C792        H795   1.083       .  S
C796        C797   1.405       .  A
C796        C801   1.406       .  A
C796       C3325   1.488       .  S
C797        C798   1.401       .  A
C797        H802   1.084       .  S
C798        C799   1.402       .  A
C798       C3313   1.481       .  S
C799        C800   1.403       .  A
C799        H803   1.084       .  S
C800        C801   1.406       .  A
C800       C4948   1.486       .  S
C801        H804   1.084       .  S
C805        C806   1.406       .  A
C805        C810   1.405       .  A
C805       C3304   1.492       .  S
C806        C807   1.403       .  A
C806        H811   1.083       .  S
C807        C808   1.403       .  A
C807       C4612   1.487       .  S
C808        C809   1.405       .  A
C808        H812   1.083       .  S
C809        C810   1.406       .  A
C809       C3292   1.490       .  S
C810        H813   1.083       .  S
O814       Ni822   1.914       .  S
O814        C824   1.281       .  A
O815       Ni822   1.914       .  S
O815        C825   1.281       .  A
O816       Ni822   1.918       .  S
O816        C826   1.280       .  A
O817       Ni822   1.918       .  S
O817        C827   1.281       .  A
O818       Ni823   1.916       .  S
O818        C827   1.281       .  A
O819       Ni823   1.913       .  S
O819        C826   1.280       .  A
O820       Ni823   1.917       .  S
O820        C825   1.281       .  A
O821       Ni823   1.918       .  S
O821        C824   1.281       .  A
Ni822      Ni823   2.390       .  S
C824       C3289   1.478       .  S
C825       C3520   1.474       .  S
C826       C3592   1.469       .  S
C827       C3328   1.476       .  S
O828       Ni836   1.915       .  S
O828        C838   1.280       .  A
O829       Ni836   1.914       .  S
O829        C839   1.281       .  A
O830       Ni836   1.920       .  S
O830        C840   1.282       .  A
O831       Ni836   1.914       .  S
O831        C841   1.280       .  A
O832       Ni837   1.914       .  S
O832        C841   1.281       .  A
O833       Ni837   1.909       .  S
O833        C840   1.279       .  A
O834       Ni837   1.918       .  S
O834        C839   1.281       .  A
O835       Ni837   1.915       .  S
O835        C838   1.281       .  A
Ni836      Ni837   2.391       .  S
C838       C3544   1.470       .  S
C839       C3340   1.479       .  S
C840       C3316   1.471       .  S
C841       C3604   1.474       .  S
C842        C843   1.398       .  A
C842        C847   1.402       .  A
C842       C3265   1.477       .  S
C843        C844   1.399       .  A
C843        H848   1.084       .  S
C844        C845   1.405       .  A
C844       C4468   1.482       .  S
C845        C846   1.412       .  A
C845        H849   1.080       .  S
C846        C847   1.413       .  A
C846       C3277   1.507       .  S
C847        H850   1.083       .  S
C851        C852   1.403       .  A
C851        C856   1.402       .  A
C851       C3241   1.486       .  S
C852        C853   1.406       .  A
C852        H857   1.083       .  S
C853        C854   1.407       .  A
C853       C4324   1.490       .  S
C854        C855   1.406       .  A
C854        H858   1.083       .  S
C855        C856   1.404       .  A
C855       C3253   1.493       .  S
C856        H859   1.084       .  S
C860        C861   1.400       .  A
C860        C865   1.409       .  A
C860       C3232   1.494       .  S
C861        C862   1.396       .  A
C861        H866   1.082       .  S
C862        C863   1.401       .  A
C862       C3217   1.481       .  S
C863        C864   1.418       .  A
C863        H867   1.076       .  S
C864        C865   1.414       .  A
C864       C3205   1.523       .  S
C865        H868   1.076       .  S
C869        C870   1.406       .  A
C869        C874   1.406       .  A
C869       C3364   1.493       .  S
C870        C871   1.401       .  A
C870        H875   1.083       .  S
C871        C872   1.400       .  A
C871       C4861   1.482       .  S
C872        C873   1.404       .  A
C872        H876   1.083       .  S
C873        C874   1.405       .  A
C873       C3193   1.486       .  S
C874        H877   1.082       .  S
C878        C879   1.404       .  A
C878        C883   1.405       .  A
C878       C3169   1.489       .  S
C879        C880   1.403       .  A
C879        H884   1.082       .  S
C880        C881   1.403       .  A
C880       C3640   1.485       .  S
C881        C882   1.403       .  A
C881        H885   1.084       .  S
C882        C883   1.403       .  A
C882       C3181   1.487       .  S
C883        H886   1.083       .  S
C887        C888   1.408       .  A
C887        C892   1.407       .  A
C887       C3157   1.495       .  S
C888        C889   1.405       .  A
C888        H893   1.083       .  S
C889        C890   1.402       .  A
C889       C4792   1.489       .  S
C890        C891   1.403       .  A
C890        H894   1.083       .  S
C891        C892   1.405       .  A
C891       C3145   1.490       .  S
C892        H895   1.082       .  S
O896       Ni904   1.919       .  S
O896        C906   1.282       .  A
O897       Ni904   1.914   1_545  S
O897        C907   1.281       .  A
O898       Ni904   1.918       .  S
O898        C908   1.281       .  A
O899       Ni904   1.912   1_545  S
O899        C909   1.280       .  A
O900       Ni905   1.918   1_545  S
O900        C909   1.282       .  A
O901       Ni905   1.914       .  S
O901        C908   1.281       .  A
O902       Ni905   1.914   1_545  S
O902        C907   1.281       .  A
O903       Ni905   1.910       .  S
O903        C906   1.280       .  A
Ni904      Ni905   2.390       .  S
C906       C3172   1.476       .  S
C907       C3196   1.476       .  S
C908       C3616   1.477       .  S
C909       C3148   1.477       .  S
C910        C911   1.409       .  A
C910        C915   1.409       .  A
C910       C3133   1.500       .  S
C911        C912   1.405       .  A
C911        H916   1.082       .  S
C912        C913   1.401       .  A
C912       C3121   1.482       .  S
C913        C914   1.400       .  A
C913        H917   1.084       .  S
C914        C915   1.403       .  A
C914       C3109   1.483       .  S
C915        H918   1.083       .  S
C919        C920   1.401       .  A
C919        C924   1.403       .  A
C919       C3376   1.480       .  S
C920        C921   1.402       .  A
C920        H925   1.084       .  S
C921        C922   1.404       .  A
C921       C5080   1.487       .  S
C922        C923   1.409       .  A
C922        H926   1.083       .  S
C923        C924   1.407       .  A
C923       C3097   1.497       .  S
C924        H927   1.082       .  S
C928        C929   1.405       .  A
C928        C933   1.409       .  A
C928       C3073   1.490       .  S
C929        C930   1.400       .  A
C929        H934   1.084       .  S
C930        C931   1.399       .  A
C930       C4900   1.478       .  S
C931        C932   1.404       .  A
C931        H935   1.083       .  S
C932        C933   1.407       .  A
C932       C3088   1.492       .  S
C933        H936   1.083       .  S
O937       Ni945   1.918       .  S
O937        C947   1.281       .  A
O938       Ni945   1.918   1_545  S
O938        C948   1.282       .  A
O939       Ni945   1.910       .  S
O939        C949   1.280       .  A
O940       Ni945   1.909   1_545  S
O940        C950   1.279       .  A
O941       Ni946   1.923   1_545  S
O941        C950   1.283       .  A
O942       Ni946   1.922       .  S
O942        C949   1.282       .  A
O943       Ni946   1.912   1_545  S
O943        C948   1.280       .  A
O944       Ni946   1.913       .  S
O944        C947   1.280       .  A
Ni945      Ni946   2.389       .  S
C947       C3124   1.474       .  S
C948       C3100   1.481       .  S
C949       C3580   1.476       .  S
C950       C3076   1.477       .  S
C951        C952   1.407       .  A
C951        C956   1.408       .  A
C951       C3049   1.493       .  S
C952        C953   1.401       .  A
C952        H957   1.083       .  S
C953        C954   1.400       .  A
C953       C4672   1.480       .  S
C954        C955   1.403       .  A
C954        H958   1.083       .  S
C955        C956   1.406       .  A
C955       C3064   1.489       .  S
C956        H959   1.083       .  S
C960        C961   1.406       .  A
C960        C965   1.408       .  A
C960       C3037   1.495       .  S
C961        C962   1.402       .  A
C961        H966   1.084       .  S
C962        C963   1.401       .  A
C962       C4420   1.481       .  S
C963        C964   1.405       .  A
C963        H967   1.084       .  S
C964        C965   1.407       .  A
C964       C3025   1.490       .  S
C965        H968   1.081       .  S
O969       Ni977   1.919       .  S
O969        C979   1.281       .  A
O970       Ni977   1.916   1_545  S
O970        C980   1.281       .  A
O971       Ni977   1.914       .  S
O971        C981   1.281       .  A
O972       Ni977   1.917   1_545  S
O972        C982   1.281       .  A
O973       Ni978   1.919   1_545  S
O973        C982   1.282       .  A
O974       Ni978   1.918       .  S
O974        C981   1.282       .  A
O975       Ni978   1.916   1_545  S
O975        C980   1.281       .  A
O976       Ni978   1.913       .  S
O976        C979   1.279       .  A
Ni977      Ni978   2.389       .  S
C979       C3220   1.470       .  S
C980       C3061   1.478       .  S
C981       C3256   1.481       .  S
C982       C3040   1.483       .  S
O983       Ni991   1.921       .  S
O983        C993   1.282       .  A
O984       Ni991   1.916       .  S
O984        C994   1.281       .  A
O985       Ni991   1.918       .  S
O985        C995   1.281       .  A
O986       Ni991   1.918       .  S
O986        C996   1.282       .  A
O987       Ni992   1.917       .  S
O987        C996   1.281       .  A
O988       Ni992   1.918       .  S
O988        C995   1.282       .  A
O989       Ni992   1.918       .  S
O989        C994   1.282       .  A
O990       Ni992   1.913       .  S
O990        C993   1.281       .  A
Ni991      Ni992   2.388       .  S
C993       C3052   1.483       .  S
C994       C3445   1.479       .  S
C995       C3556   1.482       .  S
C996       C3160   1.480       .  S
O997      Ni1005   1.920       .  S
O997       C1007   1.281       .  A
O998      Ni1005   1.914       .  S
O998       C1008   1.280       .  A
O999      Ni1005   1.919       .  S
O999       C1009   1.282       .  A
O1000     Ni1005   1.919       .  S
O1000      C1010   1.282       .  A
O1001     Ni1006   1.915       .  S
O1001      C1010   1.281       .  A
O1002     Ni1006   1.919       .  S
O1002      C1009   1.281       .  A
O1003     Ni1006   1.920       .  S
O1003      C1008   1.282       .  A
O1004     Ni1006   1.913       .  S
O1004      C1007   1.281       .  A
Ni1005    Ni1006   2.390       .  S
C1007      C3085   1.479       .  S
C1008      C3565   1.474       .  S
C1009      C3400   1.480       .  S
C1010      C3028   1.478       .  S
O1011     Ni1019   1.922       .  S
O1011      C1021   1.282       .  A
O1012     Ni1019   1.920       .  S
O1012      C1022   1.282       .  A
O1013     Ni1019   1.912       .  S
O1013      C1023   1.280       .  A
O1014     Ni1019   1.912       .  S
O1014      C1024   1.280       .  A
O1015     Ni1020   1.916       .  S
O1015      C1024   1.280       .  A
O1016     Ni1020   1.919       .  S
O1016      C1023   1.281       .  A
O1017     Ni1020   1.910       .  S
O1017      C1022   1.280       .  A
O1018     Ni1020   1.911       .  S
O1018      C1021   1.281       .  A
Ni1019    Ni1020   2.389       .  S
C1021      C3280   1.487       .  S
C1022      C3184   1.475       .  S
C1023      C3244   1.475       .  S
C1024      C3352   1.471       .  S
O1025     Ni1033   1.924       .  S
O1025      C1035   1.283       .  A
O1026     Ni1033   1.923       .  S
O1026      C1036   1.283       .  A
O1027     Ni1033   1.913       .  S
O1027      C1037   1.281       .  A
O1028     Ni1033   1.917       .  S
O1028      C1038   1.279       .  A
O1029     Ni1034   1.923       .  S
O1029      C1038   1.282       .  A
O1030     Ni1034   1.918       .  S
O1030      C1037   1.281       .  A
O1031     Ni1034   1.909       .  S
O1031      C1036   1.279       .  A
O1032     Ni1034   1.910       .  S
O1032      C1035   1.280       .  A
Ni1033    Ni1034   2.388       .  S
C1035      C3301   1.481       .  S
C1036      C3229   1.486       .  S
C1037      C3136   1.484       .  S
C1038      C3268   1.473       .  S
C1039      C1040   1.405       .  A
C1039      C1044   1.405       .  A
C1039      C3013   1.487       .  S
C1040      C1041   1.399       .  A
C1040      H1045   1.084       .  S
C1041      C1042   1.401       .  A
C1041      C4444   1.480       .  S
C1042      C1043   1.407       .  A
C1042      H1046   1.084       .  S
C1043      C1044   1.407       .  A
C1043      C3001   1.493       .  S
C1044      H1047   1.081       .  S
C1048      C1049   1.408       .  A
C1048      C1053   1.408       .  A
C1048      C2989   1.494       .  S
C1049      C1050   1.404       .  A
C1049      H1054   1.083       .  S
C1050      C1051   1.401       .  A
C1050      C4372   1.486       .  S
C1051      C1052   1.402       .  A
C1051      H1055   1.084       .  S
C1052      C1053   1.402       .  A
C1052      C2977   1.484       .  S
C1053      H1056   1.083       .  S
C1057      C1058   1.400       .  A
C1057      C1062   1.399       .  A
C1057      C2968   1.475       .  S
C1058      C1059   1.405       .  A
C1058      H1063   1.084       .  S
C1059      C1060   1.407       .  A
C1059      C4729   1.487       .  S
C1060      C1061   1.405       .  A
C1060      H1064   1.084       .  S
C1061      C1062   1.404       .  A
C1061      C2953   1.486       .  S
C1062      H1065   1.084       .  S
C1066      C1067   1.412       .  A
C1066      C1071   1.414       .  A
C1066      C2929   1.507       .  S
C1067      C1068   1.405       .  A
C1067      H1072   1.081       .  S
C1068      C1069   1.398       .  A
C1068      C4912   1.484       .  S
C1069      C1070   1.401       .  A
C1069      H1073   1.084       .  S
C1070      C1071   1.405       .  A
C1070      C2941   1.490       .  S
C1071      H1074   1.081       .  S
C1075      C1076   1.407       .  A
C1075      C1080   1.407       .  A
C1075      C2917   1.495       .  S
C1076      C1077   1.404       .  A
C1076      H1081   1.081       .  S
C1077      C1078   1.403       .  A
C1077      C5236   1.486       .  S
C1078      C1079   1.403       .  A
C1078      H1082   1.084       .  S
C1079      C1080   1.402       .  A
C1079      C2905   1.488       .  S
C1080      H1083   1.083       .  S
C1084      C1085   1.405       .  A
C1084      C1089   1.403       .  A
C1084      C2893   1.487       .  S
C1085      C1086   1.408       .  A
C1085      H1090   1.084       .  S
C1086      C1087   1.408       .  A
C1086      C5164   1.496       .  S
C1087      C1088   1.405       .  A
C1087      H1091   1.083       .  S
C1088      C1089   1.399       .  A
C1088      C2881   1.482       .  S
C1089      H1092   1.084       .  S
O1093     Ni1101   1.916   1_455  S
O1093      C1103   1.281       .  A
O1094     Ni1101   1.918       .  S
O1094      C1104   1.281       .  A
O1095     Ni1101   1.908   1_455  S
O1095      C1105   1.279       .  A
O1096     Ni1101   1.914       .  S
O1096      C1106   1.282       .  A
O1097     Ni1102   1.918       .  S
O1097      C1106   1.281       .  A
O1098     Ni1102   1.925   1_455  S
O1098      C1105   1.283       .  A
O1099     Ni1102   1.915       .  S
O1099      C1104   1.280       .  A
O1100     Ni1102   1.919   1_455  S
O1100      C1103   1.280       .  A
Ni1101    Ni1102   2.390       .  S
C1103      C2884   1.473       .  S
C1104      C2956   1.473       .  S
C1105      C2908   1.481       .  S
C1106      C2932   1.485       .  S
C1107      C1108   1.409       .  A
C1107      C1112   1.408       .  A
C1107      C2869   1.498       .  S
C1108      C1109   1.402       .  A
C1108      H1113   1.082       .  S
C1109      C1110   1.401       .  A
C1109      C4384   1.485       .  S
C1110      C1111   1.403       .  A
C1110      H1114   1.083       .  S
C1111      C1112   1.405       .  A
C1111      C2857   1.488       .  S
C1112      H1115   1.082       .  S
C1116      C1117   1.405       .  A
C1116      C1121   1.404       .  A
C1116      C2833   1.485       .  S
C1117      C1118   1.404       .  A
C1117      H1122   1.084       .  S
C1118      C1119   1.403       .  A
C1118      C4933   1.487       .  S
C1119      C1120   1.405       .  A
C1119      H1123   1.084       .  S
C1120      C1121   1.404       .  A
C1120      C2845   1.488       .  S
C1121      H1124   1.083       .  S
C1125      C1126   1.399       .  A
C1125      C1130   1.404       .  A
C1125      C2812   1.482       .  S
C1126      C1127   1.402       .  A
C1126      H1131   1.084       .  S
C1127      C1128   1.405       .  A
C1127      C4972   1.485       .  S
C1128      C1129   1.411       .  A
C1128      H1132   1.083       .  S
C1129      C1130   1.409       .  A
C1129      C2821   1.503       .  S
C1130      H1133   1.081       .  S
C1134      C1135   1.400       .  A
C1134      C1139   1.403       .  A
C1134      C2785   1.479       .  S
C1135      C1136   1.403       .  A
C1135      H1140   1.084       .  S
C1136      C1137   1.407       .  A
C1136      C5272   1.492       .  S
C1137      C1138   1.411       .  A
C1137      H1141   1.082       .  S
C1138      C1139   1.407       .  A
C1138      C2797   1.498       .  S
C1139      H1142   1.082       .  S
O1143     Ni1151   1.920       .  S
O1143      C1153   1.282       .  A
O1144     Ni1151   1.916       .  S
O1144      C1154   1.280       .  A
O1145     Ni1151   1.913       .  S
O1145      C1155   1.280       .  A
O1146     Ni1151   1.917       .  S
O1146      C1156   1.281       .  A
O1147     Ni1152   1.917       .  S
O1147      C1156   1.281       .  A
O1148     Ni1152   1.917       .  S
O1148      C1155   1.282       .  A
O1149     Ni1152   1.915       .  S
O1149      C1154   1.281       .  A
O1150     Ni1152   1.911       .  S
O1150      C1153   1.280       .  A
Ni1151    Ni1152   2.389       .  S
C1153      C2800   1.481       .  S
C1154      C2773   1.472       .  S
C1155      C2920   1.483       .  S
C1156      C2836   1.475       .  S
O1157     Ni1165   1.911       .  S
O1157      C1167   1.280       .  A
O1158     Ni1165   1.912       .  S
O1158      C1168   1.280       .  A
O1159     Ni1165   1.920       .  S
O1159      C1169   1.282       .  A
O1160     Ni1165   1.921       .  S
O1160      C1170   1.281       .  A
O1161     Ni1166   1.914       .  S
O1161      C1170   1.280       .  A
O1162     Ni1166   1.913       .  S
O1162      C1169   1.280       .  A
O1163     Ni1166   1.919       .  S
O1163      C1168   1.281       .  A
O1164     Ni1166   1.918       .  S
O1164      C1167   1.281       .  A
Ni1165    Ni1166   2.390       .  S
C1167      C2788   1.471       .  S
C1168      C2761   1.472       .  S
C1169      C2896   1.474       .  S
C1170      C2809   1.473       .  S
C1171      C1172   1.407       .  A
C1171      C1176   1.407       .  A
C1171      C2737   1.493       .  S
C1172      C1173   1.404       .  A
C1172      H1177   1.083       .  S
C1173      C1174   1.400       .  A
C1173      C2749   1.477       .  S
C1174      C1175   1.400       .  A
C1174      H1178   1.084       .  S
C1175      C1176   1.401       .  A
C1175      C4480   1.478       .  S
C1176      H1179   1.084       .  S
C1180      C1181   1.412       .  A
C1180      C1185   1.411       .  A
C1180      C2713   1.507       .  S
C1181      C1182   1.403       .  A
C1181      H1186   1.082       .  S
C1182      C1183   1.400       .  A
C1182      C4624   1.483       .  S
C1183      C1184   1.400       .  A
C1183      H1187   1.084       .  S
C1184      C1185   1.405       .  A
C1184      C2725   1.482       .  S
C1185      H1188   1.081       .  S
C1189      C1190   1.404       .  A
C1189      C1194   1.406       .  A
C1189      C2689   1.491       .  S
C1190      C1191   1.402       .  A
C1190      H1195   1.084       .  S
C1191      C1192   1.403       .  A
C1191      C5020   1.487       .  S
C1192      C1193   1.407       .  A
C1192      H1196   1.082       .  S
C1193      C1194   1.407       .  A
C1193      C2701   1.495       .  S
C1194      H1197   1.083       .  S
C1198      C1199   1.403       .  A
C1198      C1203   1.405       .  A
C1198      C2677   1.491       .  S
C1199      C1200   1.401       .  A
C1199      H1204   1.083       .  S
C1200      C1201   1.404       .  A
C1200      C4588   1.491       .  S
C1201      C1202   1.412       .  A
C1201      H1205   1.080       .  S
C1202      C1203   1.409       .  A
C1202      C2665   1.505       .  S
C1203      H1206   1.081       .  S
O1207     Ni1215   1.919       .  S
O1207      C1217   1.281       .  A
O1208     Ni1215   1.921       .  S
O1208      C1218   1.282       .  A
O1209     Ni1215   1.924       .  S
O1209      C1219   1.284       .  A
O1210     Ni1215   1.922       .  S
O1210      C1220   1.282       .  A
O1211     Ni1216   1.913       .  S
O1211      C1220   1.281       .  A
O1212     Ni1216   1.913       .  S
O1212      C1219   1.280       .  A
O1213     Ni1216   1.916       .  S
O1213      C1218   1.282       .  A
O1214     Ni1216   1.917       .  S
O1214      C1217   1.281       .  A
Ni1215    Ni1216   2.387       .  S
C1217      C3016   1.478       .  S
C1218      C2704   1.484       .  S
C1219      C2668   1.491       .  S
C1220      C2944   1.479       .  S
O1221     Ni1229   1.919       .  S
O1221      C1231   1.282       .  A
O1222     Ni1229   1.919       .  S
O1222      C1232   1.282       .  A
O1223     Ni1229   1.913       .  S
O1223      C1233   1.280       .  A
O1224     Ni1229   1.914       .  S
O1224      C1234   1.279       .  A
O1225     Ni1230   1.920       .  S
O1225      C1234   1.281       .  A
O1226     Ni1230   1.923       .  S
O1226      C1233   1.284       .  A
O1227     Ni1230   1.916       .  S
O1227      C1232   1.281       .  A
O1228     Ni1230   1.921       .  S
O1228      C1231   1.281       .  A
Ni1229    Ni1230   2.388       .  S
C1231      C2980   1.477       .  S
C1232      C2692   1.482       .  S
C1233      C2716   1.491       .  S
C1234      C2965   1.468       .  S
C1235      C1236   1.409       .  A
C1235      C1240   1.410       .  A
C1235      C2653   1.502       .  S
C1236      C1237   1.406       .  A
C1236      H1241   1.080       .  S
C1237      C1238   1.402       .  A
C1237      C2641   1.487       .  S
C1238      C1239   1.399       .  A
C1238      H1242   1.084       .  S
C1239      C1240   1.402       .  A
C1239      C3652   1.484       .  S
C1240      H1243   1.083       .  S
C1244      C1245   1.407       .  A
C1244      C1249   1.408       .  A
C1244      C2629   1.498       .  S
C1245      C1246   1.403       .  A
C1245      H1250   1.083       .  S
C1246      C1247   1.403       .  A
C1246      C2605   1.488       .  S
C1247      C1248   1.406       .  A
C1247      H1251   1.083       .  S
C1248      C1249   1.408       .  A
C1248      C2620   1.495       .  S
C1249      H1252   1.081       .  S
C1253      C1254   1.409       .  A
C1253      C1258   1.407       .  A
C1253      C2581   1.497       .  S
C1254      C1255   1.406       .  A
C1254      H1259   1.082       .  S
C1255      C1256   1.404       .  A
C1255      C2593   1.490       .  S
C1256      C1257   1.399       .  A
C1256      H1260   1.084       .  S
C1257      C1258   1.402       .  A
C1257      C2569   1.478       .  S
C1258      H1261   1.082       .  S
C1262      C1263   1.404       .  A
C1262      C1267   1.403       .  A
C1262      C2560   1.482       .  S
C1263      C1264   1.399       .  A
C1263      H1268   1.084       .  S
C1264      C1265   1.399       .  A
C1264      C5116   1.473       .  S
C1265      C1266   1.403       .  A
C1265      H1269   1.084       .  S
C1266      C1267   1.404       .  A
C1266      C2776   1.481       .  S
C1267      H1270   1.084       .  S
C1271      C1272   1.407       .  A
C1271      C1276   1.412       .  A
C1271      C2545   1.502       .  S
C1272      C1273   1.401       .  A
C1272      H1277   1.082       .  S
C1273      C1274   1.398       .  A
C1273      C5044   1.478       .  S
C1274      C1275   1.404       .  A
C1274      H1278   1.084       .  S
C1275      C1276   1.408       .  A
C1275      C2533   1.495       .  S
C1276      H1279   1.081       .  S
O1280     Ni1288   1.909   1_455  S
O1280      C1290   1.279       .  A
O1281     Ni1288   1.912       .  S
O1281      C1291   1.281       .  A
O1282     Ni1288   1.916   1_455  S
O1282      C1292   1.281       .  A
O1283     Ni1288   1.919       .  S
O1283      C1293   1.282       .  A
O1284     Ni1289   1.916       .  S
O1284      C1293   1.281       .  A
O1285     Ni1289   1.919   1_455  S
O1285      C1292   1.281       .  A
O1286     Ni1289   1.917       .  S
O1286      C1291   1.281       .  A
O1287     Ni1289   1.921   1_455  S
O1287      C1290   1.282       .  A
Ni1288    Ni1289   2.389       .  S
C1290      C2557   1.472       .  S
C1291      C2584   1.480       .  S
C1292      C2536   1.481       .  S
C1293      C2992   1.482       .  S
C1294      C1295   1.402       .  A
C1294      C1299   1.403       .  A
C1294      C2764   1.481       .  S
C1295      C1296   1.403       .  A
C1295      H1300   1.084       .  S
C1296      C1297   1.403       .  A
C1296      C4873   1.485       .  S
C1297      C1298   1.406       .  A
C1297      H1301   1.083       .  S
C1298      C1299   1.405       .  A
C1298      C2521   1.491       .  S
C1299      H1302   1.083       .  S
C1303      C1304   1.405       .  A
C1303      C1308   1.403       .  A
C1303      C2509   1.483       .  S
C1304      C1305   1.405       .  A
C1304      H1309   1.083       .  S
C1305      C1306   1.405       .  A
C1305      C4300   1.489       .  S
C1306      C1307   1.406       .  A
C1306      H1310   1.084       .  S
C1307      C1308   1.406       .  A
C1307      C2497   1.493       .  S
C1308      H1311   1.083       .  S
C1312      C1313   1.399       .  A
C1312      C1317   1.406       .  A
C1312      C2485   1.481       .  S
C1313      C1314   1.397       .  A
C1313      H1318   1.084       .  S
C1314      C1315   1.400       .  A
C1314      C4756   1.475       .  S
C1315      C1316   1.410       .  A
C1315      H1319   1.083       .  S
C1316      C1317   1.411       .  A
C1316      C2473   1.500       .  S
C1317      H1320   1.082       .  S
O1321     Ni1329   1.917   1_455  S
O1321      C1331   1.281       .  A
O1322     Ni1329   1.914       .  S
O1322      C1332   1.280       .  A
O1323     Ni1329   1.914   1_455  S
O1323      C1333   1.281       .  A
O1324     Ni1329   1.919       .  S
O1324      C1334   1.282       .  A
O1325     Ni1330   1.916       .  S
O1325      C1334   1.281       .  A
O1326     Ni1330   1.918   1_455  S
O1326      C1333   1.281       .  A
O1327     Ni1330   1.920       .  S
O1327      C1332   1.282       .  A
O1328     Ni1330   1.918   1_455  S
O1328      C1331   1.281       .  A
Ni1329    Ni1330   2.387       .  S
C1331      C2524   1.481       .  S
C1332      C2500   1.481       .  S
C1333      C2476   1.485       .  S
C1334      C3004   1.483       .  S
C1335      C1336   1.404       .  A
C1335      C1340   1.406       .  A
C1335      C2449   1.492       .  S
C1336      C1337   1.403       .  A
C1336      H1341   1.083       .  S
C1337      C1338   1.403       .  A
C1337      C2461   1.483       .  S
C1338      C1339   1.404       .  A
C1338      H1342   1.084       .  S
C1339      C1340   1.404       .  A
C1339      C4528   1.486       .  S
C1340      H1343   1.084       .  S
C1344      C1345   1.411       .  A
C1344      C1349   1.414       .  A
C1344      C2437   1.509       .  S
C1345      C1346   1.402       .  A
C1345      H1350   1.081       .  S
C1346      C1347   1.398       .  A
C1346      C4636   1.484       .  S
C1347      C1348   1.403       .  A
C1347      H1351   1.083       .  S
C1348      C1349   1.409       .  A
C1348      C2425   1.499       .  S
C1349      H1352   1.077       .  S
O1353     Ni1361   1.921   1_455  S
O1353      C1363   1.282       .  A
O1354     Ni1361   1.921       .  S
O1354      C1364   1.282       .  A
O1355     Ni1361   1.916   1_455  S
O1355      C1365   1.280       .  A
O1356     Ni1361   1.916       .  S
O1356      C1366   1.281       .  A
O1357     Ni1362   1.914       .  S
O1357      C1366   1.280       .  A
O1358     Ni1362   1.917   1_455  S
O1358      C1365   1.281       .  A
O1359     Ni1362   1.915       .  S
O1359      C1364   1.281       .  A
O1360     Ni1362   1.918   1_455  S
O1360      C1363   1.282       .  A
Ni1361    Ni1362   2.388       .  S
C1363      C2440   1.490       .  S
C1364      C2632   1.484       .  S
C1365      C2464   1.473       .  S
C1366      C2644   1.475       .  S
O1367     Ni1375   1.919       .  S
O1367      C1377   1.281       .  A
O1368     Ni1375   1.923       .  S
O1368      C1378   1.283       .  A
O1369     Ni1375   1.915       .  S
O1369      C1379   1.281       .  A
O1370     Ni1375   1.915       .  S
O1370      C1380   1.280       .  A
O1371     Ni1376   1.920       .  S
O1371      C1380   1.282       .  A
O1372     Ni1376   1.914       .  S
O1372      C1379   1.280       .  A
O1373     Ni1376   1.915       .  S
O1373      C1378   1.281       .  A
O1374     Ni1376   1.914       .  S
O1374      C1377   1.282       .  A
Ni1375    Ni1376   2.387       .  S
C1377      C2824   1.484       .  S
C1378      C2428   1.484       .  S
C1379      C2488   1.472       .  S
C1380      C2872   1.486       .  S
O1381     Ni1389   1.916       .  S
O1381      C1391   1.282       .  A
O1382     Ni1389   1.917       .  S
O1382      C1392   1.282       .  A
O1383     Ni1389   1.911       .  S
O1383      C1393   1.280       .  A
O1384     Ni1389   1.908       .  S
O1384      C1394   1.279       .  A
O1385     Ni1390   1.924       .  S
O1385      C1394   1.283       .  A
O1386     Ni1390   1.920       .  S
O1386      C1393   1.281       .  A
O1387     Ni1390   1.914       .  S
O1387      C1392   1.280       .  A
O1388     Ni1390   1.914       .  S
O1388      C1391   1.280       .  A
Ni1389    Ni1390   2.389       .  S
C1391      C2548   1.481       .  S
C1392      C2860   1.478       .  S
C1393      C2848   1.476       .  S
C1394      C2452   1.480       .  S
O1395     Ni1403   1.916       .  S
O1395      C1405   1.280       .  A
O1396     Ni1403   1.921       .  S
O1396      C1406   1.282       .  A
O1397     Ni1403   1.913       .  S
O1397      C1407   1.281       .  A
O1398     Ni1403   1.909       .  S
O1398      C1408   1.279       .  A
O1399     Ni1404   1.926       .  S
O1399      C1408   1.284       .  A
O1400     Ni1404   1.919       .  S
O1400      C1407   1.282       .  A
O1401     Ni1404   1.918       .  S
O1401      C1406   1.281       .  A
O1402     Ni1404   1.916       .  S
O1402      C1405   1.280       .  A
Ni1403    Ni1404   2.388       .  S
C1405      C2512   1.471       .  S
C1406      C2740   1.484       .  S
C1407      C2680   1.482       .  S
C1408      C2656   1.489       .  S
O1409     Ni1417   1.911       .  S
O1409      C1419   1.279       .  A
O1410     Ni1417   1.917       .  S
O1410      C1420   1.281       .  A
O1411     Ni1417   1.919       .  S
O1411      C1421   1.282       .  A
O1412     Ni1417   1.919       .  S
O1412      C1422   1.281       .  A
O1413     Ni1418   1.917       .  S
O1413      C1422   1.281       .  A
O1414     Ni1418   1.918       .  S
O1414      C1421   1.281       .  A
O1415     Ni1418   1.914       .  S
O1415      C1420   1.281       .  A
O1416     Ni1418   1.920       .  S
O1416      C1419   1.281       .  A
Ni1417    Ni1418   2.391       .  S
C1419      C2752   1.468       .  S
C1420      C2596   1.476       .  S
C1421      C2617   1.482       .  S
C1422      C2728   1.474       .  S
C1423      C1424   1.419       .  A
C1423      C1428   1.413       .  A
C1423      C3208   1.524       .  S
C1424      C1425   1.405       .  A
C1424      H1429   1.076       .  S
C1425      C1426   1.400       .  A
C1425      C2608   1.490       .  S
C1426      C1427   1.398       .  A
C1426      H1430   1.084       .  S
C1427      C1428   1.403       .  A
C1427      C2413   1.482       .  S
C1428      H1431   1.074       .  S
C1432      C1433   1.402       .  A
C1432      C1437   1.404       .  A
C1432      C3112   1.485       .  S
C1433      C1434   1.401       .  A
C1433      H1438   1.084       .  S
C1434      C1435   1.403       .  A
C1434      C2572   1.480       .  S
C1435      C1436   1.405       .  A
C1435      H1439   1.083       .  S
C1436      C1437   1.407       .  A
C1436      C2401   1.490       .  S
C1437      H1440   1.083       .  S
C1441      C1442   1.406       .  A
C1441      C1446   1.407       .  A
C1441      C2389   1.497       .  S
C1442      C1443   1.404       .  A
C1442      H1447   1.083       .  S
C1443      C1444   1.404       .  A
C1443      C2377   1.489       .  S
C1444      C1445   1.406       .  A
C1444      H1448   1.083       .  S
C1445      C1446   1.406       .  A
C1445      C4276   1.490       .  S
C1446      H1449   1.082       .  S
C1450      C1451   1.405       .  A
C1450      C1455   1.406       .  A
C1450      C2356   1.492       .  S
C1451      C1452   1.402       .  A
C1451      H1456   1.084       .  S
C1452      C1453   1.403       .  A
C1452      C3628   1.485       .  S
C1453      C1454   1.404       .  A
C1453      H1457   1.084       .  S
C1454      C1455   1.406       .  A
C1454      C2368   1.486       .  S
C1455      H1458   1.082       .  S
C1459      C1460   1.405       .  A
C1459      C1464   1.402       .  A
C1459      C2344   1.484       .  S
C1460      C1461   1.409       .  A
C1460      H1465   1.084       .  S
C1461      C1462   1.408       .  A
C1461      C2404   1.497       .  S
C1462      C1463   1.406       .  A
C1462      H1466   1.083       .  S
C1463      C1464   1.400       .  A
C1463      C2329   1.482       .  S
C1464      H1467   1.084       .  S
C1468      C1469   1.408       .  A
C1468      C1473   1.402       .  A
C1468      C2317   1.484       .  S
C1469      C1470   1.409       .  A
C1469      H1474   1.083       .  S
C1470      C1471   1.406       .  A
C1470      C4336   1.493       .  S
C1471      C1472   1.400       .  A
C1471      H1475   1.084       .  S
C1472      C1473   1.398       .  A
C1472      C2305   1.474       .  S
C1473      H1476   1.084       .  S
C1477      C1478   1.400       .  A
C1477      C1482   1.401       .  A
C1477      C2281   1.477       .  S
C1478      C1479   1.400       .  A
C1478      H1483   1.084       .  S
C1479      C1480   1.403       .  A
C1479      C3664   1.478       .  S
C1480      C1481   1.408       .  A
C1480      H1484   1.084       .  S
C1481      C1482   1.406       .  A
C1481      C2293   1.490       .  S
C1482      H1485   1.083       .  S
C1486      C1487   1.411       .  A
C1486      C1491   1.410       .  A
C1486      C2257   1.506       .  S
C1487      C1488   1.403       .  A
C1487      H1492   1.082       .  S
C1488      C1489   1.402       .  A
C1488      C2416   1.486       .  S
C1489      C1490   1.400       .  A
C1489      H1493   1.084       .  S
C1490      C1491   1.405       .  A
C1490      C2269   1.485       .  S
C1491      H1494   1.080       .  S
C1495      C1496   1.401       .  A
C1495      C1500   1.399       .  A
C1495      C2233   1.475       .  S
C1496      C1497   1.405       .  A
C1496      H1501   1.083       .  S
C1497      C1498   1.405       .  A
C1497      C5209   1.490       .  S
C1498      C1499   1.406       .  A
C1498      H1502   1.083       .  S
C1499      C1500   1.404       .  A
C1499      C2248   1.488       .  S
C1500      H1503   1.084       .  S
C1504      C1505   1.398       .  A
C1504      C1509   1.400       .  A
C1504      C2224   1.473       .  S
C1505      C1506   1.402       .  A
C1505      H1510   1.084       .  S
C1506      C1507   1.405       .  A
C1506      C5173   1.483       .  S
C1507      C1508   1.407       .  A
C1507      H1511   1.083       .  S
C1508      C1509   1.405       .  A
C1508      C2209   1.492       .  S
C1509      H1512   1.083       .  S
C1513      C1514   1.403       .  A
C1513      C1518   1.402       .  A
C1513      C2188   1.482       .  S
C1514      C1515   1.405       .  A
C1514      H1519   1.083       .  S
C1515      C1516   1.403       .  A
C1515      C5140   1.486       .  S
C1516      C1517   1.404       .  A
C1516      H1520   1.083       .  S
C1517      C1518   1.403       .  A
C1517      C2200   1.488       .  S
C1518      H1521   1.084       .  S
O1522     Ni1530   1.916       .  S
O1522      C1532   1.281       .  A
O1523     Ni1530   1.915   1_455  S
O1523      C1533   1.280       .  A
O1524     Ni1530   1.920       .  S
O1524      C1534   1.281       .  A
O1525     Ni1530   1.919   1_455  S
O1525      C1535   1.281       .  A
O1526     Ni1531   1.914   1_455  S
O1526      C1535   1.279       .  A
O1527     Ni1531   1.914       .  S
O1527      C1534   1.280       .  A
O1528     Ni1531   1.911   1_455  S
O1528      C1533   1.281       .  A
O1529     Ni1531   1.911       .  S
O1529      C1532   1.280       .  A
Ni1530    Ni1531   2.392       .  S
C1532      C2173   1.476       .  S
C1533      C2197   1.478       .  S
C1534      C2161   1.470       .  S
C1535      C2236   1.468       .  S
O1536     Ni1544   1.908       .  S
O1536      C1546   1.279       .  A
O1537     Ni1544   1.911   1_545  S
O1537      C1547   1.279       .  A
O1538     Ni1544   1.919       .  S
O1538      C1548   1.283       .  A
O1539     Ni1544   1.919   1_545  S
O1539      C1549   1.282       .  A
O1540     Ni1545   1.910   1_545  S
O1540      C1549   1.279       .  A
O1541     Ni1545   1.908       .  S
O1541      C1548   1.279       .  A
O1542     Ni1545   1.919   1_545  S
O1542      C1547   1.281       .  A
O1543     Ni1545   1.925       .  S
O1543      C1546   1.283       .  A
Ni1544    Ni1545   2.391       .  S
C1546      C2137   1.480       .  S
C1547      C2221   1.467       .  S
C1548      C2149   1.478       .  S
C1549      C2185   1.473       .  S
O1550     Ni1558   1.917   1_554  S
O1550      C1560   1.281       .  A
O1551     Ni1558   1.919       .  S
O1551      C1561   1.282       .  A
O1552     Ni1558   1.914   1_554  S
O1552      C1562   1.281       .  A
O1553     Ni1558   1.915       .  S
O1553      C1563   1.281       .  A
O1554     Ni1559   1.914       .  S
O1554      C1563   1.282       .  A
O1555     Ni1559   1.914   1_554  S
O1555      C1562   1.280       .  A
O1556     Ni1559   1.912       .  S
O1556      C1561   1.280       .  A
O1557     Ni1559   1.915   1_554  S
O1557      C1560   1.281       .  A
Ni1558    Ni1559   2.388       .  S
C1560      C2245   1.478       .  S
C1561      C2125   1.478       .  S
C1562      C2212   1.477       .  S
C1563      C2116   1.486       .  S
C1564      C1565   1.404       .  A
C1564      C1569   1.405       .  A
C1564      C2104   1.487       .  S
C1565      C1566   1.402       .  A
C1565      H1570   1.084       .  S
C1566      C1567   1.402       .  A
C1566      C4360   1.483       .  S
C1567      C1568   1.404       .  A
C1567      H1571   1.084       .  S
C1568      C1569   1.404       .  A
C1568      C2089   1.484       .  S
C1569      H1572   1.083       .  S
C1573      C1574   1.407       .  A
C1573      C1578   1.407       .  A
C1573      C2065   1.493       .  S
C1574      C1575   1.401       .  A
C1574      H1579   1.084       .  S
C1575      C1576   1.400       .  A
C1575      C4501   1.479       .  S
C1576      C1577   1.405       .  A
C1576      H1580   1.083       .  S
C1577      C1578   1.406       .  A
C1577      C2080   1.493       .  S
C1578      H1581   1.082       .  S
O1582     Ni1590   1.908   1_554  S
O1582      C1592   1.280       .  A
O1583     Ni1590   1.912       .  S
O1583      C1593   1.280       .  A
O1584     Ni1590   1.915   1_554  S
O1584      C1594   1.281       .  A
O1585     Ni1590   1.913       .  S
O1585      C1595   1.280       .  A
O1586     Ni1591   1.916       .  S
O1586      C1595   1.280       .  A
O1587     Ni1591   1.915   1_554  S
O1587      C1594   1.281       .  A
O1588     Ni1591   1.917       .  S
O1588      C1593   1.280       .  A
O1589     Ni1591   1.925   1_554  S
O1589      C1592   1.283       .  A
Ni1590    Ni1591   2.391       .  S
C1592      C2077   1.479       .  S
C1593      C2284   1.470       .  S
C1594      C2101   1.477       .  S
C1595      C2320   1.472       .  S
C1596      C1597   1.404       .  A
C1596      C1601   1.404       .  A
C1596      C2056   1.484       .  S
C1597      C1598   1.401       .  A
C1597      H1602   1.084       .  S
C1598      C1599   1.400       .  A
C1598      C4708   1.478       .  S
C1599      C1600   1.404       .  A
C1599      H1603   1.084       .  S
C1600      C1601   1.405       .  A
C1600      C2176   1.488       .  S
C1601      H1604   1.082       .  S
C1605      C1606   1.408       .  A
C1605      C1610   1.407       .  A
C1605      C2041   1.493       .  S
C1606      C1607   1.405       .  A
C1606      H1611   1.082       .  S
C1607      C1608   1.402       .  A
C1607      C4885   1.485       .  S
C1608      C1609   1.399       .  A
C1608      H1612   1.084       .  S
C1609      C1610   1.400       .  A
C1609      C2164   1.478       .  S
C1610      H1613   1.084       .  S
C1614      C1615   1.401       .  A
C1614      C1619   1.406       .  A
C1614      C2029   1.482       .  S
C1615      C1616   1.401       .  A
C1615      H1620   1.084       .  S
C1616      C1617   1.403       .  A
C1616      C5068   1.481       .  S
C1617      C1618   1.408       .  A
C1617      H1621   1.084       .  S
C1618      C1619   1.408       .  A
C1618      C2017   1.494       .  S
C1619      H1622   1.083       .  S
O1623     Ni1631   1.914   1_554  S
O1623      C1633   1.280       .  A
O1624     Ni1631   1.919       .  S
O1624      C1634   1.282       .  A
O1625     Ni1631   1.918   1_554  S
O1625      C1635   1.281       .  A
O1626     Ni1631   1.917       .  S
O1626      C1636   1.280       .  A
O1627     Ni1632   1.920       .  S
O1627      C1636   1.281       .  A
O1628     Ni1632   1.911   1_554  S
O1628      C1635   1.280       .  A
O1629     Ni1632   1.917       .  S
O1629      C1634   1.282       .  A
O1630     Ni1632   1.920   1_554  S
O1630      C1633   1.282       .  A
Ni1631    Ni1632   2.391       .  S
C1633      C2032   1.473       .  S
C1634      C2392   1.484       .  S
C1635      C2053   1.473       .  S
C1636      C2005   1.470       .  S
O1637     Ni1645   1.914   1_545  S
O1637      C1647   1.281       .  A
O1638     Ni1645   1.912       .  S
O1638      C1648   1.280       .  A
O1639     Ni1645   1.918   1_545  S
O1639      C1649   1.282       .  A
O1640     Ni1645   1.917       .  S
O1640      C1650   1.281       .  A
O1641     Ni1646   1.916       .  S
O1641      C1650   1.281       .  A
O1642     Ni1646   1.914   1_545  S
O1642      C1649   1.281       .  A
O1643     Ni1646   1.919       .  S
O1643      C1648   1.281       .  A
O1644     Ni1646   1.921   1_545  S
O1644      C1647   1.282       .  A
Ni1645    Ni1646   2.388       .  S
C1647      C2020   1.481       .  S
C1648      C2332   1.473       .  S
C1649      C2044   1.481       .  S
C1650      C2068   1.480       .  S
C1651      C1652   1.399       .  A
C1651      C1656   1.400       .  A
C1651      C2008   1.475       .  S
C1652      C1653   1.404       .  A
C1652      H1657   1.084       .  S
C1653      C1654   1.407       .  A
C1653      C4684   1.490       .  S
C1654      C1655   1.408       .  A
C1654      H1658   1.083       .  S
C1655      C1656   1.407       .  A
C1655      C1996   1.496       .  S
C1656      H1659   1.083       .  S
C1660      C1661   1.408       .  A
C1660      C1665   1.408       .  A
C1660      C1981   1.494       .  S
C1661      C1662   1.405       .  A
C1661      H1666   1.082       .  S
C1662      C1663   1.403       .  A
C1662      C4432   1.488       .  S
C1663      C1664   1.402       .  A
C1663      H1667   1.084       .  S
C1664      C1665   1.402       .  A
C1664      C1969   1.483       .  S
C1665      H1668   1.084       .  S
O1669     Ni1677   1.915   1_545  S
O1669      C1679   1.281       .  A
O1670     Ni1677   1.917       .  S
O1670      C1680   1.281       .  A
O1671     Ni1677   1.914   1_545  S
O1671      C1681   1.281       .  A
O1672     Ni1677   1.914       .  S
O1672      C1682   1.279       .  A
O1673     Ni1678   1.920       .  S
O1673      C1682   1.281       .  A
O1674     Ni1678   1.919   1_545  S
O1674      C1681   1.282       .  A
O1675     Ni1678   1.918       .  S
O1675      C1680   1.281       .  A
O1676     Ni1678   1.921   1_545  S
O1676      C1679   1.282       .  A
Ni1677    Ni1678   2.390       .  S
C1679      C1993   1.481       .  S
C1680      C2272   1.475       .  S
C1681      C1984   1.480       .  S
C1682      C2308   1.468       .  S
C1683      C1684   1.403       .  A
C1683      C1688   1.402       .  A
C1683      C1957   1.480       .  S
C1684      C1685   1.404       .  A
C1684      H1689   1.084       .  S
C1685      C1686   1.403       .  A
C1685      C4780   1.486       .  S
C1686      C1687   1.406       .  A
C1686      H1690   1.084       .  S
C1687      C1688   1.405       .  A
C1687      C2128   1.489       .  S
C1688      H1691   1.083       .  S
C1692      C1693   1.407       .  A
C1692      C1697   1.411       .  A
C1692      C2113   1.503       .  S
C1693      C1694   1.402       .  A
C1693      H1698   1.080       .  S
C1694      C1695   1.399       .  A
C1694      C4744   1.480       .  S
C1695      C1696   1.405       .  A
C1695      H1699   1.084       .  S
C1696      C1697   1.406       .  A
C1696      C1945   1.493       .  S
C1697      H1700   1.082       .  S
C1701      C1702   1.404       .  A
C1701      C1706   1.405       .  A
C1701      C1936   1.488       .  S
C1702      C1703   1.400       .  A
C1702      H1707   1.083       .  S
C1703      C1704   1.399       .  A
C1703      C4852   1.472       .  S
C1704      C1705   1.405       .  A
C1704      H1708   1.083       .  S
C1705      C1706   1.407       .  A
C1705      C1921   1.491       .  S
C1706      H1709   1.084       .  S
O1710     Ni1718   1.915   1_545  S
O1710      C1720   1.280       .  A
O1711     Ni1718   1.915       .  S
O1711      C1721   1.281       .  A
O1712     Ni1718   1.915   1_545  S
O1712      C1722   1.281       .  A
O1713     Ni1718   1.922       .  S
O1713      C1723   1.282       .  A
O1714     Ni1719   1.911       .  S
O1714      C1723   1.280       .  A
O1715     Ni1719   1.916   1_545  S
O1715      C1722   1.281       .  A
O1716     Ni1719   1.914       .  S
O1716      C1721   1.281       .  A
O1717     Ni1719   1.917   1_545  S
O1717      C1720   1.281       .  A
Ni1718    Ni1719   2.391       .  S
C1720      C1960   1.471       .  S
C1721      C1912   1.475       .  S
C1722      C1933   1.478       .  S
C1723      C2365   1.473       .  S
O1724     Ni1732   1.921       .  S
O1724      C1734   1.282       .  A
O1725     Ni1732   1.922   1_455  S
O1725      C1735   1.283       .  A
O1726     Ni1732   1.915       .  S
O1726      C1736   1.280       .  A
O1727     Ni1732   1.913   1_455  S
O1727      C1737   1.280       .  A
O1728     Ni1733   1.921   1_455  S
O1728      C1737   1.283       .  A
O1729     Ni1733   1.919       .  S
O1729      C1736   1.281       .  A
O1730     Ni1733   1.909   1_455  S
O1730      C1735   1.280       .  A
O1731     Ni1733   1.913       .  S
O1731      C1734   1.281       .  A
Ni1732    Ni1733   2.388       .  S
C1734      C2380   1.478       .  S
C1735      C1924   1.481       .  S
C1736      C1972   1.472       .  S
C1737      C1948   1.484       .  S
C1738      C1739   1.403       .  A
C1738      C1743   1.405       .  A
C1738      C1900   1.486       .  S
C1739      C1740   1.398       .  A
C1739      H1744   1.084       .  S
C1740      C1741   1.399       .  A
C1740      C4540   1.472       .  S
C1741      C1742   1.405       .  A
C1741      H1745   1.084       .  S
C1742      C1743   1.407       .  A
C1742      C1909   1.489       .  S
C1743      H1746   1.083       .  S
C1747      C1748   1.403       .  A
C1747      C1752   1.403       .  A
C1747      C1876   1.482       .  S
C1748      C1749   1.403       .  A
C1748      H1753   1.083       .  S
C1749      C1750   1.402       .  A
C1749      C4648   1.481       .  S
C1750      C1751   1.400       .  A
C1750      H1754   1.084       .  S
C1751      C1752   1.400       .  A
C1751      C1885   1.474       .  S
C1752      H1755   1.084       .  S
O1756     Ni1764   1.918       .  S
O1756      C1766   1.282       .  A
O1757     Ni1764   1.914   1_455  S
O1757      C1767   1.280       .  A
O1758     Ni1764   1.904       .  S
O1758      C1768   1.280       .  A
O1759     Ni1764   1.911   1_455  S
O1759      C1769   1.279       .  A
O1760     Ni1765   1.918   1_455  S
O1760      C1769   1.281       .  A
O1761     Ni1765   1.924       .  S
O1761      C1768   1.283       .  A
O1762     Ni1765   1.914   1_455  S
O1762      C1767   1.280       .  A
O1763     Ni1765   1.913       .  S
O1763      C1766   1.280       .  A
Ni1764    Ni1765   2.391       .  S
C1766      C2296   1.477       .  S
C1767      C1897   1.472       .  S
C1768      C2260   1.482       .  S
C1769      C1888   1.468       .  S
C1770      C1771   1.409       .  A
C1770      C1775   1.405       .  A
C1770      C2152   1.494       .  S
C1771      C1772   1.404       .  A
C1771      H1776   1.083       .  S
C1772      C1773   1.401       .  A
C1772      C4816   1.482       .  S
C1773      C1774   1.396       .  A
C1773      H1777   1.084       .  S
C1774      C1775   1.399       .  A
C1774      C1861   1.471       .  S
C1775      H1778   1.082       .  S
C1779      C1780   1.402       .  A
C1779      C1784   1.407       .  A
C1779      C1849   1.489       .  S
C1780      C1781   1.401       .  A
C1780      H1785   1.084       .  S
C1781      C1782   1.401       .  A
C1781      C5032   1.481       .  S
C1782      C1783   1.405       .  A
C1782      H1786   1.083       .  S
C1783      C1784   1.409       .  A
C1783      C2140   1.492       .  S
C1784      H1787   1.083       .  S
C1788      C1789   1.409       .  A
C1788      C1793   1.408       .  A
C1788      C1840   1.497       .  S
C1789      C1790   1.404       .  A
C1789      H1794   1.083       .  S
C1790      C1791   1.400       .  A
C1790      C5101   1.485       .  S
C1791      C1792   1.402       .  A
C1791      H1795   1.084       .  S
C1792      C1793   1.404       .  A
C1792      C1825   1.488       .  S
C1793      H1796   1.081       .  S
O1797     Ni1805   1.919       .  S
O1797      C1807   1.281       .  A
O1798     Ni1805   1.922   1_455  S
O1798      C1808   1.283       .  A
O1799     Ni1805   1.916       .  S
O1799      C1809   1.281       .  A
O1800     Ni1805   1.911   1_455  S
O1800      C1810   1.279       .  A
O1801     Ni1806   1.925   1_455  S
O1801      C1810   1.284       .  A
O1802     Ni1806   1.918       .  S
O1802      C1809   1.281       .  A
O1803     Ni1806   1.911   1_455  S
O1803      C1808   1.279       .  A
O1804     Ni1806   1.917       .  S
O1804      C1807   1.281       .  A
Ni1805    Ni1806   2.390       .  S
C1807      C2092   1.476       .  S
C1808      C1852   1.476       .  S
C1809      C2341   1.475       .  S
C1810      C1837   1.484       .  S
O1811     Ni1819   1.911   1_554  S
O1811      C1821   1.280       .  A
O1812     Ni1819   1.911       .  S
O1812      C1822   1.280       .  A
O1813     Ni1819   1.913   1_554  S
O1813      C1823   1.279       .  A
O1814     Ni1819   1.915       .  S
O1814      C1824   1.280       .  A
O1815     Ni1820   1.908       .  S
O1815      C1824   1.280       .  A
O1816     Ni1820   1.910   1_554  S
O1816      C1823   1.279       .  A
O1817     Ni1820   1.919       .  S
O1817      C1822   1.282       .  A
O1818     Ni1820   1.919   1_554  S
O1818      C1821   1.281       .  A
Ni1819    Ni1820   2.391       .  S
C1821      C1828   1.476       .  S
C1822      C2353   1.481       .  S
C1823      C1864   1.462       .  S
C1824      C1873   1.470       .  S
C1825      C1826   1.405       .  A
C1825      C1830   1.415       .  A
C1826      C1827   1.397       .  A
C1826      H1831   1.085       .  S
C1827      C1828   1.411       .  A
C1827      C1834   1.445       .  S
C1828      C1829   1.403       .  A
C1829      C1830   1.402       .  A
C1829      H1832   1.085       .  S
C1830      C1833   1.444       .  S
C1833      N1835   1.157       .  T
C1834      N1836   1.157       .  T
C1837      C1838   1.404       .  A
C1837      C1842   1.413       .  A
C1838      C1839   1.402       .  A
C1838      H1843   1.085       .  S
C1839      C1840   1.418       .  A
C1839      C1846   1.444       .  S
C1840      C1841   1.407       .  A
C1841      C1842   1.399       .  A
C1841      H1844   1.084       .  S
C1842      C1845   1.443       .  S
C1845      N1847   1.157       .  T
C1846      N1848   1.157       .  T
C1849      C1850   1.406       .  A
C1849      C1854   1.414       .  A
C1850      C1851   1.399       .  A
C1850      H1855   1.085       .  S
C1851      C1852   1.410       .  A
C1851      C1858   1.445       .  S
C1852      C1853   1.403       .  A
C1853      C1854   1.402       .  A
C1853      H1856   1.085       .  S
C1854      C1857   1.444       .  S
C1857      N1859   1.157       .  T
C1858      N1860   1.157       .  T
C1861      C1862   1.403       .  A
C1861      C1866   1.410       .  A
C1862      C1863   1.401       .  A
C1862      H1867   1.085       .  S
C1863      C1864   1.408       .  A
C1863      C1870   1.444       .  S
C1864      C1865   1.399       .  A
C1865      C1866   1.395       .  A
C1865      H1868   1.085       .  S
C1866      C1869   1.444       .  S
C1869      N1871   1.157       .  T
C1870      N1872   1.157       .  T
C1873      C1874   1.401       .  A
C1873      C1878   1.410       .  A
C1874      C1875   1.400       .  A
C1874      H1879   1.085       .  S
C1875      C1876   1.414       .  A
C1875      C1882   1.444       .  S
C1876      C1877   1.404       .  A
C1877      C1878   1.397       .  A
C1877      H1880   1.085       .  S
C1878      C1881   1.445       .  S
C1881      N1883   1.157       .  T
C1882      N1884   1.157       .  T
C1885      C1886   1.401       .  A
C1885      C1890   1.410       .  A
C1886      C1887   1.397       .  A
C1886      H1891   1.085       .  S
C1887      C1888   1.410       .  A
C1887      C1894   1.445       .  S
C1888      C1889   1.402       .  A
C1889      C1890   1.401       .  A
C1889      H1892   1.085       .  S
C1890      C1893   1.444       .  S
C1893      N1895   1.157       .  T
C1894      N1896   1.157       .  T
C1897      C1898   1.400       .  A
C1897      C1902   1.410       .  A
C1898      C1899   1.398       .  A
C1898      H1903   1.085       .  S
C1899      C1900   1.415       .  A
C1899      C1906   1.444       .  S
C1900      C1901   1.406       .  A
C1901      C1902   1.401       .  A
C1901      H1904   1.085       .  S
C1902      C1905   1.444       .  S
C1905      N1907   1.157       .  T
C1906      N1908   1.157       .  T
C1909      C1910   1.407       .  A
C1909      C1914   1.416       .  A
C1910      C1911   1.400       .  A
C1910      H1915   1.085       .  S
C1911      C1912   1.410       .  A
C1911      C1918   1.444       .  S
C1912      C1913   1.402       .  A
C1913      C1914   1.399       .  A
C1913      H1916   1.085       .  S
C1914      C1917   1.445       .  S
C1917      N1919   1.157       .  T
C1918      N1920   1.157       .  T
C1921      C1922   1.405       .  A
C1921      C1926   1.416       .  A
C1922      C1923   1.397       .  A
C1922      H1927   1.085       .  S
C1923      C1924   1.414       .  A
C1923      C1930   1.445       .  S
C1924      C1925   1.404       .  A
C1925      C1926   1.402       .  A
C1925      H1928   1.085       .  S
C1926      C1929   1.444       .  S
C1929      N1931   1.157       .  T
C1930      N1932   1.157       .  T
C1933      C1934   1.404       .  A
C1933      C1938   1.412       .  A
C1934      C1935   1.402       .  A
C1934      H1939   1.085       .  S
C1935      C1936   1.414       .  A
C1935      C1942   1.444       .  S
C1936      C1937   1.405       .  A
C1937      C1938   1.398       .  A
C1937      H1940   1.085       .  S
C1938      C1941   1.445       .  S
C1941      N1943   1.157       .  T
C1942      N1944   1.157       .  T
C1945      C1946   1.405       .  A
C1945      C1950   1.417       .  A
C1946      C1947   1.400       .  A
C1946      H1951   1.085       .  S
C1947      C1948   1.415       .  A
C1947      C1954   1.445       .  S
C1948      C1949   1.403       .  A
C1949      C1950   1.401       .  A
C1949      H1952   1.085       .  S
C1950      C1953   1.444       .  S
C1953      N1955   1.157       .  T
C1954      N1956   1.157       .  T
C1957      C1958   1.405       .  A
C1957      C1962   1.411       .  A
C1958      C1959   1.401       .  A
C1958      H1963   1.085       .  S
C1959      C1960   1.409       .  A
C1959      C1966   1.444       .  S
C1960      C1961   1.402       .  A
C1961      C1962   1.399       .  A
C1961      H1964   1.085       .  S
C1962      C1965   1.444       .  S
C1965      N1967   1.157       .  T
C1966      N1968   1.157       .  T
C1969      C1970   1.405       .  A
C1969      C1974   1.413       .  A
C1970      C1971   1.403       .  A
C1970      H1975   1.085       .  S
C1971      C1972   1.409       .  A
C1971      C1978   1.444       .  S
C1972      C1973   1.401       .  A
C1973      C1974   1.399       .  A
C1973      H1976   1.085       .  S
C1974      C1977   1.444       .  S
C1977      N1979   1.157       .  T
C1978      N1980   1.157       .  T
C1981      C1982   1.407       .  A
C1981      C1986   1.417       .  A
C1982      C1983   1.398       .  A
C1982      H1987   1.084       .  S
C1983      C1984   1.412       .  A
C1983      C1990   1.444       .  S
C1984      C1985   1.403       .  A
C1985      C1986   1.403       .  A
C1985      H1988   1.085       .  S
C1986      C1989   1.444       .  S
C1989      N1991   1.157       .  T
C1990      N1992   1.157       .  T
C1993      C1994   1.402       .  A
C1993      C1998   1.411       .  A
C1994      C1995   1.400       .  A
C1994      H1999   1.084       .  S
C1995      C1996   1.417       .  A
C1995      C2002   1.445       .  S
C1996      C1997   1.409       .  A
C1997      C1998   1.402       .  A
C1997      H2000   1.084       .  S
C1998      C2001   1.444       .  S
C2001      N2003   1.157       .  T
C2002      N2004   1.157       .  T
C2005      C2006   1.403       .  A
C2005      C2010   1.409       .  A
C2006      C2007   1.403       .  A
C2006      H2011   1.085       .  S
C2007      C2008   1.409       .  A
C2007      C2014   1.443       .  S
C2008      C2009   1.401       .  A
C2009      C2010   1.399       .  A
C2009      H2012   1.085       .  S
C2010      C2013   1.443       .  S
C2013      N2015   1.157       .  T
C2014      N2016   1.157       .  T
C2017      C2018   1.407       .  A
C2017      C2022   1.416       .  A
C2018      C2019   1.400       .  A
C2018      H2023   1.085       .  S
C2019      C2020   1.412       .  A
C2019      C2026   1.445       .  S
C2020      C2021   1.402       .  A
C2021      C2022   1.402       .  A
C2021      H2024   1.085       .  S
C2022      C2025   1.442       .  S
C2025      N2027   1.157       .  T
C2026      N2028   1.157       .  T
C2029      C2030   1.404       .  A
C2029      C2034   1.412       .  A
C2030      C2031   1.401       .  A
C2030      H2035   1.085       .  S
C2031      C2032   1.411       .  A
C2031      C2038   1.445       .  S
C2032      C2033   1.401       .  A
C2033      C2034   1.401       .  A
C2033      H2036   1.085       .  S
C2034      C2037   1.443       .  S
C2037      N2039   1.157       .  T
C2038      N2040   1.157       .  T
C2041      C2042   1.406       .  A
C2041      C2046   1.416       .  A
C2042      C2043   1.398       .  A
C2042      H2047   1.085       .  S
C2043      C2044   1.413       .  A
C2043      C2050   1.445       .  S
C2044      C2045   1.404       .  A
C2045      C2046   1.402       .  A
C2045      H2048   1.085       .  S
C2046      C2049   1.444       .  S
C2049      N2051   1.157       .  T
C2050      N2052   1.157       .  T
C2053      C2054   1.402       .  A
C2053      C2058   1.410       .  A
C2054      C2055   1.399       .  A
C2054      H2059   1.085       .  S
C2055      C2056   1.414       .  A
C2055      C2062   1.444       .  S
C2056      C2057   1.405       .  A
C2057      C2058   1.400       .  A
C2057      H2060   1.085       .  S
C2058      C2061   1.444       .  S
C2061      N2063   1.157       .  T
C2062      N2064   1.157       .  T
C2065      C2066   1.408       .  A
C2065      C2070   1.417       .  A
C2066      C2067   1.401       .  A
C2066      H2071   1.084       .  S
C2067      C2068   1.411       .  A
C2067      C2074   1.444       .  S
C2068      C2069   1.403       .  A
C2069      C2070   1.400       .  A
C2069      H2072   1.085       .  S
C2070      C2073   1.445       .  S
C2073      N2075   1.157       .  T
C2074      N2076   1.157       .  T
C2077      C2078   1.401       .  A
C2077      C2082   1.410       .  A
C2078      C2079   1.397       .  A
C2078      H2083   1.084       .  S
C2079      C2080   1.417       .  A
C2079      C2086   1.445       .  S
C2080      C2081   1.409       .  A
C2081      C2082   1.403       .  A
C2081      H2084   1.084       .  S
C2082      C2085   1.444       .  S
C2085      N2087   1.157       .  T
C2086      N2088   1.157       .  T
C2089      C2090   1.404       .  A
C2089      C2094   1.413       .  A
C2090      C2091   1.399       .  A
C2090      H2095   1.085       .  S
C2091      C2092   1.409       .  A
C2091      C2098   1.440       .  S
C2092      C2093   1.404       .  A
C2093      C2094   1.401       .  A
C2093      H2096   1.085       .  S
C2094      C2097   1.444       .  S
C2097      N2099   1.157       .  T
C2098      N2100   1.156       .  T
C2101      C2102   1.403       .  A
C2101      C2106   1.411       .  A
C2102      C2103   1.401       .  A
C2102      H2107   1.085       .  S
C2103      C2104   1.414       .  A
C2103      C2110   1.444       .  S
C2104      C2105   1.405       .  A
C2105      C2106   1.398       .  A
C2105      H2108   1.085       .  S
C2106      C2109   1.444       .  S
C2109      N2111   1.157       .  T
C2110      N2112   1.157       .  T
C2113      C2114   1.411       .  A
C2113      C2118   1.421       .  A
C2114      C2115   1.401       .  A
C2114      H2119   1.083       .  S
C2115      C2116   1.413       .  A
C2115      C2122   1.444       .  S
C2116      C2117   1.402       .  A
C2117      C2118   1.399       .  A
C2117      H2120   1.085       .  S
C2118      C2121   1.442       .  S
C2121      N2123   1.157       .  T
C2122      N2124   1.157       .  T
C2125      C2126   1.403       .  A
C2125      C2130   1.412       .  A
C2126      C2127   1.402       .  A
C2126      H2131   1.085       .  S
C2127      C2128   1.415       .  A
C2127      C2134   1.444       .  S
C2128      C2129   1.405       .  A
C2129      C2130   1.398       .  A
C2129      H2132   1.085       .  S
C2130      C2133   1.445       .  S
C2133      N2135   1.157       .  T
C2134      N2136   1.157       .  T
C2137      C2138   1.402       .  A
C2137      C2142   1.414       .  A
C2138      C2139   1.402       .  A
C2138      H2143   1.085       .  S
C2139      C2140   1.418       .  A
C2139      C2146   1.444       .  S
C2140      C2141   1.405       .  A
C2141      C2142   1.398       .  A
C2141      H2144   1.084       .  S
C2142      C2145   1.444       .  S
C2145      N2147   1.157       .  T
C2146      N2148   1.157       .  T
C2149      C2150   1.400       .  A
C2149      C2154   1.412       .  A
C2150      C2151   1.398       .  A
C2150      H2155   1.084       .  S
C2151      C2152   1.419       .  A
C2151      C2158   1.444       .  S
C2152      C2153   1.408       .  A
C2153      C2154   1.399       .  A
C2153      H2156   1.084       .  S
C2154      C2157   1.444       .  S
C2157      N2159   1.157       .  T
C2158      N2160   1.157       .  T
C2161      C2162   1.401       .  A
C2161      C2166   1.408       .  A
C2162      C2163   1.398       .  A
C2162      H2167   1.084       .  S
C2163      C2164   1.411       .  A
C2163      C2170   1.444       .  S
C2164      C2165   1.403       .  A
C2165      C2166   1.401       .  A
C2165      H2168   1.085       .  S
C2166      C2169   1.441       .  S
C2169      N2171   1.156       .  T
C2170      N2172   1.157       .  T
C2173      C2174   1.403       .  A
C2173      C2178   1.412       .  A
C2174      C2175   1.400       .  A
C2174      H2179   1.085       .  S
C2175      C2176   1.416       .  A
C2175      C2182   1.444       .  S
C2176      C2177   1.405       .  A
C2177      C2178   1.397       .  A
C2177      H2180   1.085       .  S
C2178      C2181   1.445       .  S
C2181      N2183   1.157       .  T
C2182      N2184   1.157       .  T
C2185      C2186   1.401       .  A
C2185      C2190   1.412       .  A
C2186      C2187   1.400       .  A
C2186      H2191   1.085       .  S
C2187      C2188   1.414       .  A
C2187      C2194   1.444       .  S
C2188      C2189   1.403       .  A
C2189      C2190   1.399       .  A
C2189      H2192   1.085       .  S
C2190      C2193   1.445       .  S
C2193      N2195   1.157       .  T
C2194      N2196   1.157       .  T
C2197      C2198   1.403       .  A
C2197      C2202   1.412       .  A
C2198      C2199   1.397       .  A
C2198      H2203   1.085       .  S
C2199      C2200   1.415       .  A
C2199      C2206   1.445       .  S
C2200      C2201   1.407       .  A
C2201      C2202   1.400       .  A
C2201      H2204   1.085       .  S
C2202      C2205   1.444       .  S
C2205      N2207   1.157       .  T
C2206      N2208   1.157       .  T
C2209      C2210   1.408       .  A
C2209      C2214   1.417       .  A
C2210      C2211   1.401       .  A
C2210      H2215   1.084       .  S
C2211      C2212   1.411       .  A
C2211      C2218   1.444       .  S
C2212      C2213   1.401       .  A
C2213      C2214   1.397       .  A
C2213      H2216   1.085       .  S
C2214      C2217   1.443       .  S
C2217      N2219   1.157       .  T
C2218      N2220   1.157       .  T
C2221      C2222   1.400       .  A
C2221      C2226   1.409       .  A
C2222      C2223   1.396       .  A
C2222      H2227   1.085       .  S
C2223      C2224   1.409       .  A
C2223      C2230   1.444       .  S
C2224      C2225   1.402       .  A
C2225      C2226   1.402       .  A
C2225      H2228   1.085       .  S
C2226      C2229   1.441       .  S
C2229      N2231   1.157       .  T
C2230      N2232   1.157       .  T
C2233      C2234   1.403       .  A
C2233      C2238   1.409       .  A
C2234      C2235   1.402       .  A
C2234      H2239   1.085       .  S
C2235      C2236   1.409       .  A
C2235      C2242   1.444       .  S
C2236      C2237   1.401       .  A
C2237      C2238   1.399       .  A
C2237      H2240   1.085       .  S
C2238      C2241   1.444       .  S
C2241      N2243   1.157       .  T
C2242      N2244   1.157       .  T
C2245      C2246   1.403       .  A
C2245      C2250   1.411       .  A
C2246      C2247   1.399       .  A
C2246      H2251   1.085       .  S
C2247      C2248   1.415       .  A
C2247      C2254   1.445       .  S
C2248      C2249   1.406       .  A
C2249      C2250   1.400       .  A
C2249      H2252   1.085       .  S
C2250      C2253   1.443       .  S
C2253      N2255   1.157       .  T
C2254      N2256   1.157       .  T
C2257      C2258   1.414       .  A
C2257      C2262   1.422       .  A
C2258      C2259   1.403       .  A
C2258      H2263   1.083       .  S
C2259      C2260   1.409       .  A
C2259      C2266   1.444       .  S
C2260      C2261   1.400       .  A
C2261      C2262   1.397       .  A
C2261      H2264   1.086       .  S
C2262      C2265   1.441       .  S
C2265      N2267   1.157       .  T
C2266      N2268   1.157       .  T
C2269      C2270   1.405       .  A
C2269      C2274   1.412       .  A
C2270      C2271   1.404       .  A
C2270      H2275   1.084       .  S
C2271      C2272   1.411       .  A
C2271      C2278   1.443       .  S
C2272      C2273   1.401       .  A
C2273      C2274   1.398       .  A
C2273      H2276   1.085       .  S
C2274      C2277   1.443       .  S
C2277      N2279   1.157       .  T
C2278      N2280   1.157       .  T
C2281      C2282   1.402       .  A
C2281      C2286   1.411       .  A
C2282      C2283   1.397       .  A
C2282      H2287   1.085       .  S
C2283      C2284   1.410       .  A
C2283      C2290   1.445       .  S
C2284      C2285   1.403       .  A
C2285      C2286   1.402       .  A
C2285      H2288   1.085       .  S
C2286      C2289   1.444       .  S
C2289      N2291   1.157       .  T
C2290      N2292   1.157       .  T
C2293      C2294   1.406       .  A
C2293      C2298   1.416       .  A
C2294      C2295   1.401       .  A
C2294      H2299   1.085       .  S
C2295      C2296   1.411       .  A
C2295      C2302   1.444       .  S
C2296      C2297   1.402       .  A
C2297      C2298   1.399       .  A
C2297      H2300   1.085       .  S
C2298      C2301   1.445       .  S
C2301      N2303   1.157       .  T
C2302      N2304   1.157       .  T
C2305      C2306   1.402       .  A
C2305      C2310   1.409       .  A
C2306      C2307   1.401       .  A
C2306      H2311   1.085       .  S
C2307      C2308   1.409       .  A
C2307      C2314   1.443       .  S
C2308      C2309   1.401       .  A
C2309      C2310   1.399       .  A
C2309      H2312   1.085       .  S
C2310      C2313   1.444       .  S
C2313      N2315   1.157       .  T
C2314      N2316   1.157       .  T
C2317      C2318   1.406       .  A
C2317      C2322   1.412       .  A
C2318      C2319   1.401       .  A
C2318      H2323   1.085       .  S
C2319      C2320   1.411       .  A
C2319      C2326   1.445       .  S
C2320      C2321   1.400       .  A
C2321      C2322   1.399       .  A
C2321      H2324   1.085       .  S
C2322      C2325   1.441       .  S
C2325      N2327   1.156       .  T
C2326      N2328   1.157       .  T
C2329      C2330   1.406       .  A
C2329      C2334   1.410       .  A
C2330      C2331   1.404       .  A
C2330      H2335   1.085       .  S
C2331      C2332   1.410       .  A
C2331      C2338   1.443       .  S
C2332      C2333   1.401       .  A
C2333      C2334   1.397       .  A
C2333      H2336   1.085       .  S
C2334      C2337   1.442       .  S
C2337      N2339   1.157       .  T
C2338      N2340   1.157       .  T
C2341      C2342   1.402       .  A
C2341      C2346   1.412       .  A
C2342      C2343   1.401       .  A
C2342      H2347   1.085       .  S
C2343      C2344   1.414       .  A
C2343      C2350   1.444       .  S
C2344      C2345   1.404       .  A
C2345      C2346   1.400       .  A
C2345      H2348   1.085       .  S
C2346      C2349   1.445       .  S
C2349      N2351   1.157       .  T
C2350      N2352   1.157       .  T
C2353      C2354   1.404       .  A
C2353      C2358   1.413       .  A
C2354      C2355   1.402       .  A
C2354      H2359   1.085       .  S
C2355      C2356   1.416       .  A
C2355      C2362   1.444       .  S
C2356      C2357   1.406       .  A
C2357      C2358   1.397       .  A
C2357      H2360   1.084       .  S
C2358      C2361   1.445       .  S
C2361      N2363   1.157       .  T
C2362      N2364   1.157       .  T
C2365      C2366   1.402       .  A
C2365      C2370   1.409       .  A
C2366      C2367   1.399       .  A
C2366      H2371   1.085       .  S
C2367      C2368   1.414       .  A
C2367      C2374   1.444       .  S
C2368      C2369   1.407       .  A
C2369      C2370   1.402       .  A
C2369      H2372   1.085       .  S
C2370      C2373   1.444       .  S
C2373      N2375   1.157       .  T
C2374      N2376   1.157       .  T
C2377      C2378   1.407       .  A
C2377      C2382   1.415       .  A
C2378      C2379   1.404       .  A
C2378      H2383   1.084       .  S
C2379      C2380   1.412       .  A
C2379      C2386   1.444       .  S
C2380      C2381   1.402       .  A
C2381      C2382   1.397       .  A
C2381      H2384   1.085       .  S
C2382      C2385   1.445       .  S
C2385      N2387   1.157       .  T
C2386      N2388   1.157       .  T
C2389      C2390   1.408       .  A
C2389      C2394   1.416       .  A
C2390      C2391   1.399       .  A
C2390      H2395   1.083       .  S
C2391      C2392   1.413       .  A
C2391      C2398   1.445       .  S
C2392      C2393   1.405       .  A
C2393      C2394   1.403       .  A
C2393      H2396   1.085       .  S
C2394      C2397   1.444       .  S
C2397      N2399   1.157       .  T
C2398      N2400   1.157       .  T
C2401      C2402   1.402       .  A
C2401      C2406   1.413       .  A
C2402      C2403   1.399       .  A
C2402      H2407   1.085       .  S
C2403      C2404   1.417       .  A
C2403      C2410   1.441       .  S
C2404      C2405   1.408       .  A
C2405      C2406   1.402       .  A
C2405      H2408   1.084       .  S
C2406      C2409   1.444       .  S
C2409      N2411   1.157       .  T
C2410      N2412   1.156       .  T
C2413      C2414   1.402       .  A
C2413      C2418   1.413       .  A
C2414      C2415   1.402       .  A
C2414      H2419   1.085       .  S
C2415      C2416   1.416       .  A
C2415      C2422   1.444       .  S
C2416      C2417   1.403       .  A
C2417      C2418   1.399       .  A
C2417      H2420   1.085       .  S
C2418      C2421   1.445       .  S
C2421      N2423   1.157       .  T
C2422      N2424   1.157       .  T
C2425      C2426   1.408       .  A
C2425      C2430   1.417       .  A
C2426      C2427   1.397       .  A
C2426      H2431   1.084       .  S
C2427      C2428   1.410       .  A
C2427      C2434   1.441       .  S
C2428      C2429   1.405       .  A
C2429      C2430   1.404       .  A
C2429      H2432   1.085       .  S
C2430      C2433   1.444       .  S
C2433      N2435   1.157       .  T
C2434      N2436   1.156       .  T
C2437      C2438   1.411       .  A
C2437      C2442   1.422       .  A
C2438      C2439   1.401       .  A
C2438      H2443   1.082       .  S
C2439      C2440   1.413       .  A
C2439      C2446   1.444       .  S
C2440      C2441   1.404       .  A
C2441      C2442   1.402       .  A
C2441      H2444   1.085       .  S
C2442      C2445   1.444       .  S
C2445      N2447   1.158       .  T
C2446      N2448   1.158       .  T
C2449      C2450   1.405       .  A
C2449      C2454   1.417       .  A
C2450      C2451   1.398       .  A
C2450      H2455   1.085       .  S
C2451      C2452   1.413       .  A
C2451      C2458   1.445       .  S
C2452      C2453   1.403       .  A
C2453      C2454   1.402       .  A
C2453      H2456   1.085       .  S
C2454      C2457   1.444       .  S
C2457      N2459   1.157       .  T
C2458      N2460   1.157       .  T
C2461      C2462   1.403       .  A
C2461      C2466   1.413       .  A
C2462      C2463   1.397       .  A
C2462      H2467   1.085       .  S
C2463      C2464   1.410       .  A
C2463      C2470   1.440       .  S
C2464      C2465   1.401       .  A
C2465      C2466   1.401       .  A
C2465      H2468   1.085       .  S
C2466      C2469   1.441       .  S
C2469      N2471   1.156       .  T
C2470      N2472   1.155       .  T
C2473      C2474   1.410       .  A
C2473      C2478   1.419       .  A
C2474      C2475   1.400       .  A
C2474      H2479   1.084       .  S
C2475      C2476   1.413       .  A
C2475      C2482   1.445       .  S
C2476      C2477   1.403       .  A
C2477      C2478   1.401       .  A
C2477      H2480   1.085       .  S
C2478      C2481   1.442       .  S
C2481      N2483   1.157       .  T
C2482      N2484   1.157       .  T
C2485      C2486   1.404       .  A
C2485      C2490   1.412       .  A
C2486      C2487   1.400       .  A
C2486      H2491   1.085       .  S
C2487      C2488   1.411       .  A
C2487      C2494   1.445       .  S
C2488      C2489   1.401       .  A
C2489      C2490   1.399       .  A
C2489      H2492   1.085       .  S
C2490      C2493   1.443       .  S
C2493      N2495   1.157       .  T
C2494      N2496   1.157       .  T
C2497      C2498   1.407       .  A
C2497      C2502   1.416       .  A
C2498      C2499   1.400       .  A
C2498      H2503   1.085       .  S
C2499      C2500   1.412       .  A
C2499      C2506   1.445       .  S
C2500      C2501   1.404       .  A
C2501      C2502   1.401       .  A
C2501      H2504   1.085       .  S
C2502      C2505   1.444       .  S
C2505      N2507   1.157       .  T
C2506      N2508   1.157       .  T
C2509      C2510   1.405       .  A
C2509      C2514   1.413       .  A
C2510      C2511   1.401       .  A
C2510      H2515   1.085       .  S
C2511      C2512   1.410       .  A
C2511      C2518   1.445       .  S
C2512      C2513   1.400       .  A
C2513      C2514   1.400       .  A
C2513      H2516   1.085       .  S
C2514      C2517   1.442       .  S
C2517      N2519   1.157       .  T
C2518      N2520   1.157       .  T
C2521      C2522   1.405       .  A
C2521      C2526   1.416       .  A
C2522      C2523   1.399       .  A
C2522      H2527   1.085       .  S
C2523      C2524   1.411       .  A
C2523      C2530   1.441       .  S
C2524      C2525   1.404       .  A
C2525      C2526   1.401       .  A
C2525      H2528   1.085       .  S
C2526      C2529   1.444       .  S
C2529      N2531   1.157       .  T
C2530      N2532   1.156       .  T
C2533      C2534   1.407       .  A
C2533      C2538   1.416       .  A
C2534      C2535   1.398       .  A
C2534      H2539   1.085       .  S
C2535      C2536   1.412       .  A
C2535      C2542   1.445       .  S
C2536      C2537   1.404       .  A
C2537      C2538   1.403       .  A
C2537      H2540   1.085       .  S
C2538      C2541   1.444       .  S
C2541      N2543   1.157       .  T
C2542      N2544   1.157       .  T
C2545      C2546   1.410       .  A
C2545      C2550   1.421       .  A
C2546      C2547   1.401       .  A
C2546      H2551   1.084       .  S
C2547      C2548   1.412       .  A
C2547      C2554   1.445       .  S
C2548      C2549   1.400       .  A
C2549      C2550   1.400       .  A
C2549      H2552   1.085       .  S
C2550      C2553   1.442       .  S
C2553      N2555   1.157       .  T
C2554      N2556   1.157       .  T
C2557      C2558   1.401       .  A
C2557      C2562   1.409       .  A
C2558      C2559   1.396       .  A
C2558      H2563   1.084       .  S
C2559      C2560   1.412       .  A
C2559      C2566   1.445       .  S
C2560      C2561   1.406       .  A
C2561      C2562   1.402       .  A
C2561      H2564   1.085       .  S
C2562      C2565   1.444       .  S
C2565      N2567   1.157       .  T
C2566      N2568   1.157       .  T
C2569      C2570   1.402       .  A
C2569      C2574   1.410       .  A
C2570      C2571   1.400       .  A
C2570      H2575   1.085       .  S
C2571      C2572   1.412       .  A
C2571      C2578   1.444       .  S
C2572      C2573   1.403       .  A
C2573      C2574   1.400       .  A
C2573      H2576   1.085       .  S
C2574      C2577   1.443       .  S
C2577      N2579   1.157       .  T
C2578      N2580   1.157       .  T
C2581      C2582   1.410       .  A
C2581      C2586   1.418       .  A
C2582      C2583   1.402       .  A
C2582      H2587   1.084       .  S
C2583      C2584   1.411       .  A
C2583      C2590   1.444       .  S
C2584      C2585   1.401       .  A
C2585      C2586   1.397       .  A
C2585      H2588   1.085       .  S
C2586      C2589   1.442       .  S
C2589      N2591   1.157       .  T
C2590      N2592   1.157       .  T
C2593      C2594   1.407       .  A
C2593      C2598   1.415       .  A
C2594      C2595   1.400       .  A
C2594      H2599   1.085       .  S
C2595      C2596   1.410       .  A
C2595      C2602   1.444       .  S
C2596      C2597   1.403       .  A
C2597      C2598   1.400       .  A
C2597      H2600   1.085       .  S
C2598      C2601   1.444       .  S
C2601      N2603   1.157       .  T
C2602      N2604   1.157       .  T
C2605      C2606   1.403       .  A
C2605      C2610   1.415       .  A
C2606      C2607   1.400       .  A
C2606      H2611   1.085       .  S
C2607      C2608   1.416       .  A
C2607      C2614   1.445       .  S
C2608      C2609   1.405       .  A
C2609      C2610   1.403       .  A
C2609      H2612   1.084       .  S
C2610      C2613   1.444       .  S
C2613      N2615   1.157       .  T
C2614      N2616   1.157       .  T
C2617      C2618   1.403       .  A
C2617      C2622   1.413       .  A
C2618      C2619   1.402       .  A
C2618      H2623   1.085       .  S
C2619      C2620   1.418       .  A
C2619      C2626   1.444       .  S
C2620      C2621   1.407       .  A
C2621      C2622   1.401       .  A
C2621      H2624   1.084       .  S
C2622      C2625   1.444       .  S
C2625      N2627   1.157       .  T
C2626      N2628   1.157       .  T
C2629      C2630   1.407       .  A
C2629      C2634   1.418       .  A
C2630      C2631   1.398       .  A
C2630      H2635   1.084       .  S
C2631      C2632   1.413       .  A
C2631      C2638   1.445       .  S
C2632      C2633   1.404       .  A
C2633      C2634   1.404       .  A
C2633      H2636   1.085       .  S
C2634      C2637   1.444       .  S
C2637      N2639   1.157       .  T
C2638      N2640   1.157       .  T
C2641      C2642   1.405       .  A
C2641      C2646   1.416       .  A
C2642      C2643   1.400       .  A
C2642      H2647   1.085       .  S
C2643      C2644   1.412       .  A
C2643      C2650   1.445       .  S
C2644      C2645   1.401       .  A
C2645      C2646   1.399       .  A
C2645      H2648   1.085       .  S
C2646      C2649   1.445       .  S
C2649      N2651   1.157       .  T
C2650      N2652   1.157       .  T
C2653      C2654   1.407       .  A
C2653      C2658   1.420       .  A
C2654      C2655   1.397       .  A
C2654      H2659   1.083       .  S
C2655      C2656   1.415       .  A
C2655      C2662   1.444       .  S
C2656      C2657   1.405       .  A
C2657      C2658   1.404       .  A
C2657      H2660   1.085       .  S
C2658      C2661   1.444       .  S
C2661      N2663   1.157       .  T
C2662      N2664   1.157       .  T
C2665      C2666   1.409       .  A
C2665      C2670   1.421       .  A
C2666      C2667   1.399       .  A
C2666      H2671   1.083       .  S
C2667      C2668   1.415       .  A
C2667      C2674   1.444       .  S
C2668      C2669   1.404       .  A
C2669      C2670   1.403       .  A
C2669      H2672   1.085       .  S
C2670      C2673   1.444       .  S
C2673      N2675   1.157       .  T
C2674      N2676   1.157       .  T
C2677      C2678   1.407       .  A
C2677      C2682   1.415       .  A
C2678      C2679   1.402       .  A
C2678      H2683   1.084       .  S
C2679      C2680   1.412       .  A
C2679      C2686   1.444       .  S
C2680      C2681   1.404       .  A
C2681      C2682   1.399       .  A
C2681      H2684   1.085       .  S
C2682      C2685   1.444       .  S
C2685      N2687   1.157       .  T
C2686      N2688   1.157       .  T
C2689      C2690   1.406       .  A
C2689      C2694   1.415       .  A
C2690      C2691   1.400       .  A
C2690      H2695   1.085       .  S
C2691      C2692   1.413       .  A
C2691      C2698   1.445       .  S
C2692      C2693   1.404       .  A
C2693      C2694   1.402       .  A
C2693      H2696   1.085       .  S
C2694      C2697   1.444       .  S
C2697      N2699   1.157       .  T
C2698      N2700   1.157       .  T
C2701      C2702   1.408       .  A
C2701      C2706   1.416       .  A
C2702      C2703   1.403       .  A
C2702      H2707   1.084       .  S
C2703      C2704   1.413       .  A
C2703      C2710   1.444       .  S
C2704      C2705   1.403       .  A
C2705      C2706   1.399       .  A
C2705      H2708   1.083       .  S
C2706      C2709   1.445       .  S
C2709      N2711   1.157       .  T
C2710      N2712   1.157       .  T
C2713      C2714   1.410       .  A
C2713      C2718   1.421       .  A
C2714      C2715   1.399       .  A
C2714      H2719   1.083       .  S
C2715      C2716   1.415       .  A
C2715      C2722   1.445       .  S
C2716      C2717   1.404       .  A
C2717      C2718   1.403       .  A
C2717      H2720   1.085       .  S
C2718      C2721   1.443       .  S
C2721      N2723   1.157       .  T
C2722      N2724   1.158       .  T
C2725      C2726   1.403       .  A
C2725      C2730   1.412       .  A
C2726      C2727   1.402       .  A
C2726      H2731   1.085       .  S
C2727      C2728   1.412       .  A
C2727      C2734   1.445       .  S
C2728      C2729   1.401       .  A
C2729      C2730   1.401       .  A
C2729      H2732   1.085       .  S
C2730      C2733   1.443       .  S
C2733      N2735   1.157       .  T
C2734      N2736   1.157       .  T
C2737      C2738   1.405       .  A
C2737      C2742   1.417       .  A
C2738      C2739   1.398       .  A
C2738      H2743   1.085       .  S
C2739      C2740   1.412       .  A
C2739      C2746   1.441       .  S
C2740      C2741   1.405       .  A
C2741      C2742   1.404       .  A
C2741      H2744   1.085       .  S
C2742      C2745   1.444       .  S
C2745      N2747   1.157       .  T
C2746      N2748   1.156       .  T
C2749      C2750   1.405       .  A
C2749      C2754   1.410       .  A
C2750      C2751   1.402       .  A
C2750      H2755   1.085       .  S
C2751      C2752   1.408       .  A
C2751      C2758   1.444       .  S
C2752      C2753   1.401       .  A
C2753      C2754   1.398       .  A
C2753      H2756   1.084       .  S
C2754      C2757   1.444       .  S
C2757      N2759   1.157       .  T
C2758      N2760   1.157       .  T
C2761      C2762   1.403       .  A
C2761      C2766   1.410       .  A
C2762      C2763   1.402       .  A
C2762      H2767   1.085       .  S
C2763      C2764   1.412       .  A
C2763      C2770   1.444       .  S
C2764      C2765   1.403       .  A
C2765      C2766   1.398       .  A
C2765      H2768   1.085       .  S
C2766      C2769   1.445       .  S
C2769      N2771   1.157       .  T
C2770      N2772   1.157       .  T
C2773      C2774   1.401       .  A
C2773      C2778   1.410       .  A
C2774      C2775   1.398       .  A
C2774      H2779   1.085       .  S
C2775      C2776   1.413       .  A
C2775      C2782   1.443       .  S
C2776      C2777   1.404       .  A
C2777      C2778   1.400       .  A
C2777      H2780   1.085       .  S
C2778      C2781   1.441       .  S
C2781      N2783   1.156       .  T
C2782      N2784   1.157       .  T
C2785      C2786   1.403       .  A
C2785      C2790   1.411       .  A
C2786      C2787   1.399       .  A
C2786      H2791   1.085       .  S
C2787      C2788   1.411       .  A
C2787      C2794   1.445       .  S
C2788      C2789   1.401       .  A
C2789      C2790   1.400       .  A
C2789      H2792   1.085       .  S
C2790      C2793   1.442       .  S
C2793      N2795   1.157       .  T
C2794      N2796   1.157       .  T
C2797      C2798   1.408       .  A
C2797      C2802   1.419       .  A
C2798      C2799   1.400       .  A
C2798      H2803   1.084       .  S
C2799      C2800   1.413       .  A
C2799      C2806   1.445       .  S
C2800      C2801   1.400       .  A
C2801      C2802   1.401       .  A
C2801      H2804   1.085       .  S
C2802      C2805   1.442       .  S
C2805      N2807   1.157       .  T
C2806      N2808   1.157       .  T
C2809      C2810   1.401       .  A
C2809      C2814   1.411       .  A
C2810      C2811   1.397       .  A
C2810      H2815   1.085       .  S
C2811      C2812   1.411       .  A
C2811      C2818   1.443       .  S
C2812      C2813   1.405       .  A
C2813      C2814   1.404       .  A
C2813      H2816   1.084       .  S
C2814      C2817   1.443       .  S
C2817      N2819   1.157       .  T
C2818      N2820   1.157       .  T
C2821      C2822   1.412       .  A
C2821      C2826   1.421       .  A
C2822      C2823   1.403       .  A
C2822      H2827   1.084       .  S
C2823      C2824   1.411       .  A
C2823      C2830   1.444       .  S
C2824      C2825   1.401       .  A
C2825      C2826   1.398       .  A
C2825      H2828   1.085       .  S
C2826      C2829   1.442       .  S
C2829      N2831   1.157       .  T
C2830      N2832   1.157       .  T
C2833      C2834   1.404       .  A
C2833      C2838   1.414       .  A
C2834      C2835   1.400       .  A
C2834      H2839   1.085       .  S
C2835      C2836   1.411       .  A
C2835      C2842   1.445       .  S
C2836      C2837   1.402       .  A
C2837      C2838   1.402       .  A
C2837      H2840   1.085       .  S
C2838      C2841   1.444       .  S
C2841      N2843   1.157       .  T
C2842      N2844   1.157       .  T
C2845      C2846   1.404       .  A
C2845      C2850   1.415       .  A
C2846      C2847   1.397       .  A
C2846      H2851   1.085       .  S
C2847      C2848   1.412       .  A
C2847      C2854   1.445       .  S
C2848      C2849   1.403       .  A
C2849      C2850   1.403       .  A
C2849      H2852   1.085       .  S
C2850      C2853   1.444       .  S
C2853      N2855   1.157       .  T
C2854      N2856   1.157       .  T
C2857      C2858   1.406       .  A
C2857      C2862   1.415       .  A
C2858      C2859   1.400       .  A
C2858      H2863   1.085       .  S
C2859      C2860   1.411       .  A
C2859      C2866   1.444       .  S
C2860      C2861   1.403       .  A
C2861      C2862   1.399       .  A
C2861      H2864   1.084       .  S
C2862      C2865   1.444       .  S
C2865      N2867   1.157       .  T
C2866      N2868   1.157       .  T
C2869      C2870   1.407       .  A
C2869      C2874   1.418       .  A
C2870      C2871   1.397       .  A
C2870      H2875   1.084       .  S
C2871      C2872   1.414       .  A
C2871      C2878   1.442       .  S
C2872      C2873   1.405       .  A
C2873      C2874   1.403       .  A
C2873      H2876   1.085       .  S
C2874      C2877   1.444       .  S
C2877      N2879   1.157       .  T
C2878      N2880   1.157       .  T
C2881      C2882   1.406       .  A
C2881      C2886   1.411       .  A
C2882      C2883   1.404       .  A
C2882      H2887   1.084       .  S
C2883      C2884   1.410       .  A
C2883      C2890   1.444       .  S
C2884      C2885   1.400       .  A
C2885      C2886   1.397       .  A
C2885      H2888   1.084       .  S
C2886      C2889   1.443       .  S
C2889      N2891   1.157       .  T
C2890      N2892   1.157       .  T
C2893      C2894   1.407       .  A
C2893      C2898   1.414       .  A
C2894      C2895   1.402       .  A
C2894      H2899   1.085       .  S
C2895      C2896   1.410       .  A
C2895      C2902   1.444       .  S
C2896      C2897   1.402       .  A
C2897      C2898   1.398       .  A
C2897      H2900   1.085       .  S
C2898      C2901   1.445       .  S
C2901      N2903   1.157       .  T
C2902      N2904   1.157       .  T
C2905      C2906   1.403       .  A
C2905      C2910   1.416       .  A
C2906      C2907   1.398       .  A
C2906      H2911   1.085       .  S
C2907      C2908   1.415       .  A
C2907      C2914   1.445       .  S
C2908      C2909   1.403       .  A
C2909      C2910   1.402       .  A
C2909      H2912   1.085       .  S
C2910      C2913   1.444       .  S
C2913      N2915   1.157       .  T
C2914      N2916   1.157       .  T
C2917      C2918   1.407       .  A
C2917      C2922   1.417       .  A
C2918      C2919   1.398       .  A
C2918      H2923   1.084       .  S
C2919      C2920   1.413       .  A
C2919      C2926   1.443       .  S
C2920      C2921   1.404       .  A
C2921      C2922   1.401       .  A
C2921      H2924   1.085       .  S
C2922      C2925   1.444       .  S
C2925      N2927   1.157       .  T
C2926      N2928   1.157       .  T
C2929      C2930   1.412       .  A
C2929      C2934   1.421       .  A
C2930      C2931   1.402       .  A
C2930      H2935   1.083       .  S
C2931      C2932   1.412       .  A
C2931      C2938   1.445       .  S
C2932      C2933   1.401       .  A
C2933      C2934   1.400       .  A
C2933      H2936   1.085       .  S
C2934      C2937   1.441       .  S
C2937      N2939   1.157       .  T
C2938      N2940   1.157       .  T
C2941      C2942   1.405       .  A
C2941      C2946   1.415       .  A
C2942      C2943   1.396       .  A
C2942      H2947   1.085       .  S
C2943      C2944   1.411       .  A
C2943      C2950   1.444       .  S
C2944      C2945   1.405       .  A
C2945      C2946   1.405       .  A
C2945      H2948   1.085       .  S
C2946      C2949   1.443       .  S
C2949      N2951   1.157       .  T
C2950      N2952   1.157       .  T
C2953      C2954   1.406       .  A
C2953      C2958   1.414       .  A
C2954      C2955   1.403       .  A
C2954      H2959   1.085       .  S
C2955      C2956   1.409       .  A
C2955      C2962   1.444       .  S
C2956      C2957   1.401       .  A
C2957      C2958   1.399       .  A
C2957      H2960   1.085       .  S
C2958      C2961   1.445       .  S
C2961      N2963   1.157       .  T
C2962      N2964   1.157       .  T
C2965      C2966   1.402       .  A
C2965      C2970   1.408       .  A
C2966      C2967   1.399       .  A
C2966      H2971   1.085       .  S
C2967      C2968   1.409       .  A
C2967      C2974   1.444       .  S
C2968      C2969   1.403       .  A
C2969      C2970   1.402       .  A
C2969      H2972   1.085       .  S
C2970      C2973   1.443       .  S
C2973      N2975   1.157       .  T
C2974      N2976   1.157       .  T
C2977      C2978   1.401       .  A
C2977      C2982   1.413       .  A
C2978      C2979   1.396       .  A
C2978      H2983   1.085       .  S
C2979      C2980   1.409       .  A
C2979      C2986   1.440       .  S
C2980      C2981   1.404       .  A
C2981      C2982   1.405       .  A
C2981      H2984   1.084       .  S
C2982      C2985   1.443       .  S
C2985      N2987   1.157       .  T
C2986      N2988   1.155       .  T
C2989      C2990   1.407       .  A
C2989      C2994   1.416       .  A
C2990      C2991   1.399       .  A
C2990      H2995   1.084       .  S
C2991      C2992   1.412       .  A
C2991      C2998   1.445       .  S
C2992      C2993   1.404       .  A
C2993      C2994   1.402       .  A
C2993      H2996   1.085       .  S
C2994      C2997   1.444       .  S
C2997      N2999   1.157       .  T
C2998      N3000   1.157       .  T
C3001      C3002   1.406       .  A
C3001      C3006   1.417       .  A
C3002      C3003   1.399       .  A
C3002      H3007   1.085       .  S
C3003      C3004   1.412       .  A
C3003      C3010   1.442       .  S
C3004      C3005   1.404       .  A
C3005      C3006   1.401       .  A
C3005      H3008   1.085       .  S
C3006      C3009   1.444       .  S
C3009      N3011   1.157       .  T
C3010      N3012   1.156       .  T
C3013      C3014   1.403       .  A
C3013      C3018   1.415       .  A
C3014      C3015   1.395       .  A
C3014      H3019   1.085       .  S
C3015      C3016   1.410       .  A
C3015      C3022   1.440       .  S
C3016      C3017   1.404       .  A
C3017      C3018   1.404       .  A
C3017      H3020   1.085       .  S
C3018      C3021   1.444       .  S
C3021      N3023   1.157       .  T
C3022      N3024   1.156       .  T
C3025      C3026   1.407       .  A
C3025      C3030   1.415       .  A
C3026      C3027   1.401       .  A
C3026      H3031   1.085       .  S
C3027      C3028   1.411       .  A
C3027      C3034   1.444       .  S
C3028      C3029   1.403       .  A
C3029      C3030   1.401       .  A
C3029      H3032   1.085       .  S
C3030      C3033   1.444       .  S
C3033      N3035   1.157       .  T
C3034      N3036   1.157       .  T
C3037      C3038   1.407       .  A
C3037      C3042   1.417       .  A
C3038      C3039   1.399       .  A
C3038      H3043   1.085       .  S
C3039      C3040   1.413       .  A
C3039      C3046   1.445       .  S
C3040      C3041   1.404       .  A
C3041      C3042   1.403       .  A
C3041      H3044   1.085       .  S
C3042      C3045   1.444       .  S
C3045      N3047   1.157       .  T
C3046      N3048   1.157       .  T
C3049      C3050   1.408       .  A
C3049      C3054   1.416       .  A
C3050      C3051   1.402       .  A
C3050      H3055   1.084       .  S
C3051      C3052   1.412       .  A
C3051      C3058   1.444       .  S
C3052      C3053   1.403       .  A
C3053      C3054   1.399       .  A
C3053      H3056   1.084       .  S
C3054      C3057   1.445       .  S
C3057      N3059   1.157       .  T
C3058      N3060   1.157       .  T
C3061      C3062   1.403       .  A
C3061      C3066   1.411       .  A
C3062      C3063   1.399       .  A
C3062      H3067   1.084       .  S
C3063      C3064   1.415       .  A
C3063      C3070   1.445       .  S
C3064      C3065   1.406       .  A
C3065      C3066   1.401       .  A
C3065      H3068   1.085       .  S
C3066      C3069   1.444       .  S
C3069      N3071   1.157       .  T
C3070      N3072   1.157       .  T
C3073      C3074   1.408       .  A
C3073      C3078   1.415       .  A
C3074      C3075   1.401       .  A
C3074      H3079   1.085       .  S
C3075      C3076   1.409       .  A
C3075      C3082   1.444       .  S
C3076      C3077   1.403       .  A
C3077      C3078   1.399       .  A
C3077      H3080   1.085       .  S
C3078      C3081   1.445       .  S
C3081      N3083   1.157       .  T
C3082      N3084   1.157       .  T
C3085      C3086   1.400       .  A
C3085      C3090   1.411       .  A
C3086      C3087   1.397       .  A
C3086      H3091   1.083       .  S
C3087      C3088   1.417       .  A
C3087      C3094   1.445       .  S
C3088      C3089   1.408       .  A
C3089      C3090   1.404       .  A
C3089      H3092   1.084       .  S
C3090      C3093   1.444       .  S
C3093      N3095   1.157       .  T
C3094      N3096   1.157       .  T
C3097      C3098   1.408       .  A
C3097      C3102   1.418       .  A
C3098      C3099   1.399       .  A
C3098      H3103   1.084       .  S
C3099      C3100   1.413       .  A
C3099      C3106   1.445       .  S
C3100      C3101   1.401       .  A
C3101      C3102   1.401       .  A
C3101      H3104   1.085       .  S
C3102      C3105   1.442       .  S
C3105      N3107   1.157       .  T
C3106      N3108   1.157       .  T
C3109      C3110   1.404       .  A
C3109      C3114   1.413       .  A
C3110      C3111   1.402       .  A
C3110      H3115   1.085       .  S
C3111      C3112   1.413       .  A
C3111      C3118   1.444       .  S
C3112      C3113   1.404       .  A
C3113      C3114   1.399       .  A
C3113      H3116   1.085       .  S
C3114      C3117   1.445       .  S
C3117      N3119   1.157       .  T
C3118      N3120   1.157       .  T
C3121      C3122   1.404       .  A
C3121      C3126   1.412       .  A
C3122      C3123   1.401       .  A
C3122      H3127   1.085       .  S
C3123      C3124   1.412       .  A
C3123      C3130   1.445       .  S
C3124      C3125   1.401       .  A
C3125      C3126   1.400       .  A
C3125      H3128   1.085       .  S
C3126      C3129   1.443       .  S
C3129      N3131   1.157       .  T
C3130      N3132   1.157       .  T
C3133      C3134   1.410       .  A
C3133      C3138   1.418       .  A
C3134      C3135   1.401       .  A
C3134      H3139   1.084       .  S
C3135      C3136   1.412       .  A
C3135      C3142   1.445       .  S
C3136      C3137   1.402       .  A
C3137      C3138   1.399       .  A
C3137      H3140   1.085       .  S
C3138      C3141   1.441       .  S
C3141      N3143   1.157       .  T
C3142      N3144   1.157       .  T
C3145      C3146   1.406       .  A
C3145      C3150   1.416       .  A
C3146      C3147   1.397       .  A
C3146      H3151   1.085       .  S
C3147      C3148   1.412       .  A
C3147      C3154   1.444       .  S
C3148      C3149   1.403       .  A
C3149      C3150   1.402       .  A
C3149      H3152   1.085       .  S
C3150      C3153   1.444       .  S
C3153      N3155   1.157       .  T
C3154      N3156   1.157       .  T
C3157      C3158   1.407       .  A
C3157      C3162   1.417       .  A
C3158      C3159   1.400       .  A
C3158      H3163   1.084       .  S
C3159      C3160   1.412       .  A
C3159      C3166   1.445       .  S
C3160      C3161   1.403       .  A
C3161      C3162   1.402       .  A
C3161      H3164   1.085       .  S
C3162      C3165   1.444       .  S
C3165      N3167   1.157       .  T
C3166      N3168   1.157       .  T
C3169      C3170   1.405       .  A
C3169      C3174   1.416       .  A
C3170      C3171   1.396       .  A
C3170      H3175   1.085       .  S
C3171      C3172   1.411       .  A
C3171      C3178   1.444       .  S
C3172      C3173   1.403       .  A
C3173      C3174   1.402       .  A
C3173      H3176   1.085       .  S
C3174      C3177   1.444       .  S
C3177      N3179   1.157       .  T
C3178      N3180   1.157       .  T
C3181      C3182   1.405       .  A
C3181      C3186   1.415       .  A
C3182      C3183   1.398       .  A
C3182      H3187   1.085       .  S
C3183      C3184   1.411       .  A
C3183      C3190   1.445       .  S
C3184      C3185   1.402       .  A
C3185      C3186   1.402       .  A
C3185      H3188   1.085       .  S
C3186      C3189   1.444       .  S
C3189      N3191   1.157       .  T
C3190      N3192   1.157       .  T
C3193      C3194   1.406       .  A
C3193      C3198   1.414       .  A
C3194      C3195   1.399       .  A
C3194      H3199   1.085       .  S
C3195      C3196   1.410       .  A
C3195      C3202   1.444       .  S
C3196      C3197   1.403       .  A
C3197      C3198   1.399       .  A
C3197      H3200   1.083       .  S
C3198      C3201   1.444       .  S
C3201      N3203   1.157       .  T
C3202      N3204   1.157       .  T
C3205      C3206   1.412       .  A
C3205      C3210   1.423       .  A
C3206      C3207   1.403       .  A
C3206      H3211   1.076       .  S
C3207      C3208   1.424       .  A
C3207      C3214   1.444       .  S
C3208      C3209   1.412       .  A
C3209      C3210   1.401       .  A
C3209      H3212   1.076       .  S
C3210      C3213   1.444       .  S
C3213      N3215   1.157       .  T
C3214      N3216   1.158       .  T
C3217      C3218   1.403       .  A
C3217      C3222   1.413       .  A
C3218      C3219   1.402       .  A
C3218      H3223   1.085       .  S
C3219      C3220   1.411       .  A
C3219      C3226   1.444       .  S
C3220      C3221   1.399       .  A
C3221      C3222   1.398       .  A
C3221      H3224   1.085       .  S
C3222      C3225   1.444       .  S
C3225      N3227   1.157       .  T
C3226      N3228   1.157       .  T
C3229      C3230   1.406       .  A
C3229      C3234   1.415       .  A
C3230      C3231   1.404       .  A
C3230      H3235   1.085       .  S
C3231      C3232   1.415       .  A
C3231      C3238   1.443       .  S
C3232      C3233   1.405       .  A
C3233      C3234   1.396       .  A
C3233      H3236   1.082       .  S
C3234      C3237   1.445       .  S
C3237      N3239   1.157       .  T
C3238      N3240   1.157       .  T
C3241      C3242   1.406       .  A
C3241      C3246   1.415       .  A
C3242      C3243   1.403       .  A
C3242      H3247   1.084       .  S
C3243      C3244   1.411       .  A
C3243      C3250   1.444       .  S
C3244      C3245   1.401       .  A
C3245      C3246   1.397       .  A
C3245      H3248   1.085       .  S
C3246      C3249   1.445       .  S
C3249      N3251   1.157       .  T
C3250      N3252   1.157       .  T
C3253      C3254   1.407       .  A
C3253      C3258   1.415       .  A
C3254      C3255   1.399       .  A
C3254      H3259   1.084       .  S
C3255      C3256   1.412       .  A
C3255      C3262   1.445       .  S
C3256      C3257   1.404       .  A
C3257      C3258   1.402       .  A
C3257      H3260   1.085       .  S
C3258      C3261   1.444       .  S
C3261      N3263   1.157       .  T
C3262      N3264   1.157       .  T
C3265      C3266   1.400       .  A
C3265      C3270   1.410       .  A
C3266      C3267   1.400       .  A
C3266      H3271   1.085       .  S
C3267      C3268   1.411       .  A
C3267      C3274   1.442       .  S
C3268      C3269   1.402       .  A
C3269      C3270   1.403       .  A
C3269      H3272   1.085       .  S
C3270      C3273   1.443       .  S
C3273      N3275   1.157       .  T
C3274      N3276   1.156       .  T
C3277      C3278   1.413       .  A
C3277      C3282   1.422       .  A
C3278      C3279   1.403       .  A
C3278      H3283   1.083       .  S
C3279      C3280   1.412       .  A
C3279      C3286   1.444       .  S
C3280      C3281   1.401       .  A
C3281      C3282   1.398       .  A
C3281      H3284   1.085       .  S
C3282      C3285   1.442       .  S
C3285      N3287   1.157       .  T
C3286      N3288   1.157       .  T
C3289      C3290   1.402       .  A
C3289      C3294   1.412       .  A
C3290      C3291   1.401       .  A
C3290      H3295   1.085       .  S
C3291      C3292   1.416       .  A
C3291      C3298   1.444       .  S
C3292      C3293   1.406       .  A
C3293      C3294   1.399       .  A
C3293      H3296   1.085       .  S
C3294      C3297   1.445       .  S
C3297      N3299   1.157       .  T
C3298      N3300   1.157       .  T
C3301      C3302   1.404       .  A
C3301      C3306   1.411       .  A
C3302      C3303   1.399       .  A
C3302      H3307   1.085       .  S
C3303      C3304   1.415       .  A
C3303      C3310   1.445       .  S
C3304      C3305   1.409       .  A
C3305      C3306   1.403       .  A
C3305      H3308   1.084       .  S
C3306      C3309   1.444       .  S
C3309      N3311   1.157       .  T
C3310      N3312   1.157       .  T
C3313      C3314   1.405       .  A
C3313      C3318   1.412       .  A
C3314      C3315   1.402       .  A
C3314      H3319   1.085       .  S
C3315      C3316   1.409       .  A
C3315      C3322   1.444       .  S
C3316      C3317   1.402       .  A
C3317      C3318   1.397       .  A
C3317      H3320   1.085       .  S
C3318      C3321   1.445       .  S
C3321      N3323   1.157       .  T
C3322      N3324   1.157       .  T
C3325      C3326   1.406       .  A
C3325      C3330   1.415       .  A
C3326      C3327   1.402       .  A
C3326      H3331   1.085       .  S
C3327      C3328   1.410       .  A
C3327      C3334   1.444       .  S
C3328      C3329   1.402       .  A
C3329      C3330   1.399       .  A
C3329      H3332   1.085       .  S
C3330      C3333   1.445       .  S
C3333      N3335   1.157       .  T
C3334      N3336   1.157       .  T
C3337      C3338   1.407       .  A
C3337      C3342   1.416       .  A
C3338      C3339   1.402       .  A
C3338      H3343   1.084       .  S
C3339      C3340   1.412       .  A
C3339      C3346   1.444       .  S
C3340      C3341   1.402       .  A
C3341      C3342   1.398       .  A
C3341      H3344   1.085       .  S
C3342      C3345   1.445       .  S
C3345      N3347   1.157       .  T
C3346      N3348   1.157       .  T
C3349      C3350   1.404       .  A
C3349      C3354   1.412       .  A
C3350      C3351   1.396       .  A
C3350      H3355   1.084       .  S
C3351      C3352   1.410       .  A
C3351      C3358   1.445       .  S
C3352      C3353   1.403       .  A
C3353      C3354   1.402       .  A
C3353      H3356   1.085       .  S
C3354      C3357   1.444       .  S
C3357      N3359   1.157       .  T
C3358      N3360   1.157       .  T
C3361      C3362   1.404       .  A
C3361      C3366   1.414       .  A
C3362      C3363   1.401       .  A
C3362      H3367   1.085       .  S
C3363      C3364   1.417       .  A
C3363      C3370   1.444       .  S
C3364      C3365   1.406       .  A
C3365      C3366   1.397       .  A
C3365      H3368   1.084       .  S
C3366      C3369   1.445       .  S
C3369      N3371   1.157       .  T
C3370      N3372   1.157       .  T
C3373      C3374   1.401       .  A
C3373      C3378   1.411       .  A
C3374      C3375   1.401       .  A
C3374      H3379   1.085       .  S
C3375      C3376   1.412       .  A
C3375      C3382   1.442       .  S
C3376      C3377   1.401       .  A
C3377      C3378   1.399       .  A
C3377      H3380   1.085       .  S
C3378      C3381   1.441       .  S
C3381      N3383   1.156       .  T
C3382      N3384   1.157       .  T
C3385      C3386   1.414       .  A
C3385      C3390   1.424       .  A
C3386      C3387   1.402       .  A
C3386      H3391   1.082       .  S
C3387      C3388   1.413       .  A
C3387      C3394   1.444       .  S
C3388      C3389   1.403       .  A
C3389      C3390   1.402       .  A
C3389      H3392   1.085       .  S
C3390      C3393   1.441       .  S
C3393      N3395   1.157       .  T
C3394      N3396   1.158       .  T
C3397      C3398   1.404       .  A
C3397      C3402   1.413       .  A
C3398      C3399   1.402       .  A
C3398      H3403   1.085       .  S
C3399      C3400   1.414       .  A
C3399      C3406   1.443       .  S
C3400      C3401   1.402       .  A
C3401      C3402   1.400       .  A
C3401      H3404   1.085       .  S
C3402      C3405   1.443       .  S
C3405      N3407   1.157       .  T
C3406      N3408   1.157       .  T
C3409      C3410   1.404       .  A
C3409      C3414   1.411       .  A
C3410      C3411   1.405       .  A
C3410      H3415   1.085       .  S
C3411      C3412   1.414       .  A
C3411      C3418   1.443       .  S
C3412      C3413   1.403       .  A
C3413      C3414   1.396       .  A
C3413      H3416   1.085       .  S
C3414      C3417   1.441       .  S
C3417      N3419   1.156       .  T
C3418      N3420   1.157       .  T
C3421      C3422   1.404       .  A
C3421      C3426   1.415       .  A
C3422      C3423   1.398       .  A
C3422      H3427   1.085       .  S
C3423      C3424   1.411       .  A
C3423      C3430   1.440       .  S
C3424      C3425   1.404       .  A
C3425      C3426   1.403       .  A
C3425      H3428   1.085       .  S
C3426      C3429   1.444       .  S
C3429      N3431   1.157       .  T
C3430      N3432   1.156       .  T
C3433      C3434   1.408       .  A
C3433      C3438   1.416       .  A
C3434      C3435   1.402       .  A
C3434      H3439   1.084       .  S
C3435      C3436   1.411       .  A
C3435      C3442   1.444       .  S
C3436      C3437   1.403       .  A
C3437      C3438   1.399       .  A
C3437      H3440   1.085       .  S
C3438      C3441   1.445       .  S
C3441      N3443   1.157       .  T
C3442      N3444   1.157       .  T
C3445      C3446   1.403       .  A
C3445      C3450   1.411       .  A
C3446      C3447   1.400       .  A
C3446      H3451   1.085       .  S
C3447      C3448   1.414       .  A
C3447      C3454   1.445       .  S
C3448      C3449   1.406       .  A
C3449      C3450   1.402       .  A
C3449      H3452   1.085       .  S
C3450      C3453   1.444       .  S
C3453      N3455   1.157       .  T
C3454      N3456   1.157       .  T
C3457      C3458   1.407       .  A
C3457      C3462   1.415       .  A
C3458      C3459   1.404       .  A
C3458      H3463   1.084       .  S
C3459      C3460   1.412       .  A
C3459      C3466   1.444       .  S
C3460      C3461   1.402       .  A
C3461      C3462   1.397       .  A
C3461      H3464   1.084       .  S
C3462      C3465   1.445       .  S
C3465      N3467   1.157       .  T
C3466      N3468   1.157       .  T
C3469      C3470   1.408       .  A
C3469      C3474   1.420       .  A
C3470      C3471   1.398       .  A
C3470      H3475   1.082       .  S
C3471      C3472   1.415       .  A
C3471      C3478   1.444       .  S
C3472      C3473   1.405       .  A
C3473      C3474   1.404       .  A
C3473      H3476   1.085       .  S
C3474      C3477   1.444       .  S
C3477      N3479   1.157       .  T
C3478      N3480   1.158       .  T
C3481      C3482   1.407       .  A
C3481      C3486   1.419       .  A
C3482      C3483   1.401       .  A
C3482      H3487   1.084       .  S
C3483      C3484   1.413       .  A
C3483      C3490   1.444       .  S
C3484      C3485   1.401       .  A
C3485      C3486   1.401       .  A
C3485      H3488   1.085       .  S
C3486      C3489   1.444       .  S
C3489      N3491   1.157       .  T
C3490      N3492   1.157       .  T
C3493      C3494   1.409       .  A
C3493      C3498   1.419       .  A
C3494      C3495   1.395       .  A
C3494      H3499   1.083       .  S
C3495      C3496   1.414       .  A
C3495      C3502   1.444       .  S
C3496      C3497   1.405       .  A
C3497      C3498   1.404       .  A
C3497      H3500   1.085       .  S
C3498      C3501   1.444       .  S
C3501      N3503   1.157       .  T
C3502      N3504   1.157       .  T
C3505      C3506   1.405       .  A
C3505      C3510   1.414       .  A
C3506      C3507   1.398       .  A
C3506      H3511   1.085       .  S
C3507      C3508   1.411       .  A
C3507      C3514   1.445       .  S
C3508      C3509   1.403       .  A
C3509      C3510   1.400       .  A
C3509      H3512   1.085       .  S
C3510      C3513   1.444       .  S
C3513      N3515   1.157       .  T
C3514      N3516   1.157       .  T
C3517      C3518   1.405       .  A
C3517      C3522   1.412       .  A
C3518      C3519   1.401       .  A
C3518      H3523   1.085       .  S
C3519      C3520   1.410       .  A
C3519      C3526   1.444       .  S
C3520      C3521   1.402       .  A
C3521      C3522   1.398       .  A
C3521      H3524   1.085       .  S
C3522      C3525   1.445       .  S
C3525      N3527   1.157       .  T
C3526      N3528   1.157       .  T
C3529      C3530   1.403       .  A
C3529      C3534   1.413       .  A
C3530      C3531   1.399       .  A
C3530      H3535   1.085       .  S
C3531      C3532   1.411       .  A
C3531      C3538   1.445       .  S
C3532      C3533   1.403       .  A
C3533      C3534   1.404       .  A
C3533      H3536   1.085       .  S
C3534      C3537   1.444       .  S
C3537      N3539   1.157       .  T
C3538      N3540   1.157       .  T
C3541      C3542   1.405       .  A
C3541      C3546   1.411       .  A
C3542      C3543   1.402       .  A
C3542      H3547   1.085       .  S
C3543      C3544   1.410       .  A
C3543      C3550   1.443       .  S
C3544      C3545   1.400       .  A
C3545      C3546   1.397       .  A
C3545      H3548   1.085       .  S
C3546      C3549   1.442       .  S
C3549      N3551   1.157       .  T
C3550      N3552   1.157       .  T
C3553      C3554   1.408       .  A
C3553      C3558   1.417       .  A
C3554      C3555   1.400       .  A
C3554      H3559   1.084       .  S
C3555      C3556   1.412       .  A
C3555      C3562   1.444       .  S
C3556      C3557   1.402       .  A
C3557      C3558   1.403       .  A
C3557      H3560   1.085       .  S
C3558      C3561   1.442       .  S
C3561      N3563   1.157       .  T
C3562      N3564   1.157       .  T
C3565      C3566   1.402       .  A
C3565      C3570   1.411       .  A
C3566      C3567   1.401       .  A
C3566      H3571   1.085       .  S
C3567      C3568   1.412       .  A
C3567      C3574   1.442       .  S
C3568      C3569   1.404       .  A
C3569      C3570   1.401       .  A
C3569      H3572   1.085       .  S
C3570      C3573   1.445       .  S
C3573      N3575   1.157       .  T
C3574      N3576   1.157       .  T
C3577      C3578   1.409       .  A
C3577      C3582   1.415       .  A
C3578      C3579   1.403       .  A
C3578      H3583   1.085       .  S
C3579      C3580   1.409       .  A
C3579      C3586   1.443       .  S
C3580      C3581   1.401       .  A
C3581      C3582   1.397       .  A
C3581      H3584   1.086       .  S
C3582      C3585   1.442       .  S
C3585      N3587   1.156       .  T
C3586      N3588   1.157       .  T
C3589      C3590   1.405       .  A
C3589      C3594   1.410       .  A
C3590      C3591   1.403       .  A
C3590      H3595   1.085       .  S
C3591      C3592   1.409       .  A
C3591      C3598   1.444       .  S
C3592      C3593   1.400       .  A
C3593      C3594   1.397       .  A
C3593      H3596   1.085       .  S
C3594      C3597   1.443       .  S
C3597      N3599   1.157       .  T
C3598      N3600   1.157       .  T
C3601      C3602   1.406       .  A
C3601      C3606   1.415       .  A
C3602      C3603   1.397       .  A
C3602      H3607   1.085       .  S
C3603      C3604   1.410       .  A
C3603      C3610   1.445       .  S
C3604      C3605   1.402       .  A
C3605      C3606   1.401       .  A
C3605      H3608   1.084       .  S
C3606      C3609   1.444       .  S
C3609      N3611   1.157       .  T
C3610      N3612   1.157       .  T
C3613      C3614   1.408       .  A
C3613      C3618   1.416       .  A
C3614      C3615   1.402       .  A
C3614      H3619   1.084       .  S
C3615      C3616   1.410       .  A
C3615      C3622   1.444       .  S
C3616      C3617   1.401       .  A
C3617      C3618   1.398       .  A
C3617      H3620   1.082       .  S
C3618      C3621   1.445       .  S
C3621      N3623   1.157       .  T
C3622      N3624   1.157       .  T
C3625      C3626   1.404       .  A
C3625      C3630   1.415       .  A
C3626      C3627   1.399       .  A
C3626      H3631   1.085       .  S
C3627      C3628   1.414       .  A
C3627      C3634   1.445       .  S
C3628      C3629   1.403       .  A
C3629      C3630   1.401       .  A
C3629      H3632   1.085       .  S
C3630      C3633   1.444       .  S
C3633      N3635   1.157       .  T
C3634      N3636   1.157       .  T
C3637      C3638   1.404       .  A
C3637      C3642   1.413       .  A
C3638      C3639   1.400       .  A
C3638      H3643   1.085       .  S
C3639      C3640   1.414       .  A
C3639      C3646   1.444       .  S
C3640      C3641   1.404       .  A
C3641      C3642   1.398       .  A
C3641      H3644   1.085       .  S
C3642      C3645   1.444       .  S
C3645      N3647   1.157       .  T
C3646      N3648   1.157       .  T
C3649      C3650   1.405       .  A
C3649      C3654   1.415       .  A
C3650      C3651   1.399       .  A
C3650      H3655   1.085       .  S
C3651      C3652   1.413       .  A
C3651      C3658   1.445       .  S
C3652      C3653   1.403       .  A
C3653      C3654   1.400       .  A
C3653      H3656   1.085       .  S
C3654      C3657   1.444       .  S
C3657      N3659   1.157       .  T
C3658      N3660   1.157       .  T
C3661      C3662   1.402       .  A
C3661      C3666   1.411       .  A
C3662      C3663   1.399       .  A
C3662      H3667   1.085       .  S
C3663      C3664   1.411       .  A
C3663      C3670   1.444       .  S
C3664      C3665   1.403       .  A
C3665      C3666   1.402       .  A
C3665      H3668   1.085       .  S
C3666      C3669   1.444       .  S
C3669      N3671   1.157       .  T
C3670      N3672   1.157       .  T
C3673      C3674   1.405       .  A
C3673      C3678   1.414       .  A
C3674      C3675   1.399       .  A
C3674      H3679   1.085       .  S
C3675      C3676   1.411       .  A
C3675      C3682   1.444       .  S
C3676      C3677   1.402       .  A
C3677      C3678   1.401       .  A
C3677      H3680   1.085       .  S
C3678      C3681   1.444       .  S
C3681      N3683   1.157       .  T
C3682      N3684   1.157       .  T
C3685      C3686   1.406       .  A
C3685      C3690   1.420       .  A
C3686      C3687   1.399       .  A
C3686      H3691   1.084       .  S
C3687      C3688   1.412       .  A
C3687      C3694   1.441       .  S
C3688      C3689   1.403       .  A
C3689      C3690   1.403       .  A
C3689      H3692   1.085       .  S
C3690      C3693   1.444       .  S
C3693      N3695   1.157       .  T
C3694      N3696   1.156       .  T
C3697      C3698   1.405       .  A
C3697      C3702   1.414       .  A
C3698      C3699   1.404       .  A
C3698      H3703   1.085       .  S
C3699      C3700   1.420       .  A
C3699      C3706   1.444       .  S
C3700      C3701   1.410       .  A
C3701      C3702   1.398       .  A
C3701      H3704   1.083       .  S
C3702      C3705   1.444       .  S
C3705      N3707   1.158       .  T
C3706      N3708   1.157       .  T
C3709      C3710   1.404       .  A
C3709      C3714   1.411       .  A
C3710      C3711   1.404       .  A
C3710      H3715   1.084       .  S
C3711      C3712   1.409       .  A
C3711      C3718   1.443       .  S
C3712      C3713   1.401       .  A
C3713      C3714   1.399       .  A
C3713      H3716   1.085       .  S
C3714      C3717   1.444       .  S
C3717      N3719   1.157       .  T
C3718      N3720   1.157       .  T
C3721      C3722   1.405       .  A
C3721      C3726   1.416       .  A
C3722      C3723   1.399       .  A
C3722      H3727   1.085       .  S
C3723      C3724   1.413       .  A
C3723      C3730   1.444       .  S
C3724      C3725   1.404       .  A
C3725      C3726   1.404       .  A
C3725      H3728   1.085       .  S
C3726      C3729   1.444       .  S
C3729      N3731   1.157       .  T
C3730      N3732   1.157       .  T
C3733      C3734   1.406       .  A
C3733      C3738   1.417       .  A
C3734      C3735   1.402       .  A
C3734      H3739   1.084       .  S
C3735      C3736   1.412       .  A
C3735      C3742   1.444       .  S
C3736      C3737   1.401       .  A
C3737      C3738   1.399       .  A
C3737      H3740   1.085       .  S
C3738      C3741   1.445       .  S
C3741      N3743   1.157       .  T
C3742      N3744   1.157       .  T
C3745      C3746   1.402       .  A
C3745      C3750   1.411       .  A
C3746      C3747   1.400       .  A
C3746      H3751   1.083       .  S
C3747      C3748   1.418       .  A
C3747      C3754   1.444       .  S
C3748      C3749   1.409       .  A
C3749      C3750   1.403       .  A
C3749      H3752   1.084       .  S
C3750      C3753   1.444       .  S
C3753      N3755   1.157       .  T
C3754      N3756   1.157       .  T
C3757      C3758   1.408       .  A
C3757      C3762   1.418       .  A
C3758      C3759   1.398       .  A
C3758      H3763   1.084       .  S
C3759      C3760   1.413       .  A
C3759      C3766   1.442       .  S
C3760      C3761   1.406       .  A
C3761      C3762   1.404       .  A
C3761      H3764   1.085       .  S
C3762      C3765   1.444       .  S
C3765      N3767   1.157       .  T
C3766      N3768   1.157       .  T
C3769      C3770   1.408       .  A
C3769      C3774   1.413       .  A
C3770      C3771   1.400       .  A
C3770      H3775   1.085       .  S
C3771      C3772   1.408       .  A
C3771      C3778   1.444       .  S
C3772      C3773   1.403       .  A
C3773      C3774   1.400       .  A
C3773      H3776   1.085       .  S
C3774      C3777   1.444       .  S
C3777      N3779   1.157       .  T
C3778      N3780   1.157       .  T
C3781      C3782   1.404       .  A
C3781      C3786   1.412       .  A
C3782      C3783   1.401       .  A
C3782      H3787   1.085       .  S
C3783      C3784   1.412       .  A
C3783      C3790   1.444       .  S
C3784      C3785   1.404       .  A
C3785      C3786   1.399       .  A
C3785      H3788   1.085       .  S
C3786      C3789   1.445       .  S
C3789      N3791   1.157       .  T
C3790      N3792   1.157       .  T
C3793      C3794   1.407       .  A
C3793      C3798   1.416       .  A
C3794      C3795   1.402       .  A
C3794      H3799   1.085       .  S
C3795      C3796   1.412       .  A
C3795      C3802   1.444       .  S
C3796      C3797   1.403       .  A
C3797      C3798   1.398       .  A
C3797      H3800   1.085       .  S
C3798      C3801   1.445       .  S
C3801      N3803   1.157       .  T
C3802      N3804   1.157       .  T
C3805      C3806   1.405       .  A
C3805      C3810   1.415       .  A
C3806      C3807   1.400       .  A
C3806      H3811   1.085       .  S
C3807      C3808   1.412       .  A
C3807      C3814   1.445       .  S
C3808      C3809   1.403       .  A
C3809      C3810   1.401       .  A
C3809      H3812   1.085       .  S
C3810      C3813   1.444       .  S
C3813      N3815   1.157       .  T
C3814      N3816   1.157       .  T
C3817      C3818   1.405       .  A
C3817      C3822   1.418       .  A
C3818      C3819   1.396       .  A
C3818      H3823   1.084       .  S
C3819      C3820   1.413       .  A
C3819      C3826   1.442       .  S
C3820      C3821   1.405       .  A
C3821      C3822   1.404       .  A
C3821      H3824   1.085       .  S
C3822      C3825   1.444       .  S
C3825      N3827   1.157       .  T
C3826      N3828   1.156       .  T
C3829      C3830   1.401       .  A
C3829      C3834   1.411       .  A
C3830      C3831   1.401       .  A
C3830      H3835   1.085       .  S
C3831      C3832   1.414       .  A
C3831      C3838   1.444       .  S
C3832      C3833   1.403       .  A
C3833      C3834   1.400       .  A
C3833      H3836   1.085       .  S
C3834      C3837   1.445       .  S
C3837      N3839   1.157       .  T
C3838      N3840   1.157       .  T
C3841      C3842   1.406       .  A
C3841      C3846   1.416       .  A
C3842      C3843   1.398       .  A
C3842      H3847   1.084       .  S
C3843      C3844   1.412       .  A
C3843      C3850   1.445       .  S
C3844      C3845   1.404       .  A
C3845      C3846   1.401       .  A
C3845      H3848   1.085       .  S
C3846      C3849   1.444       .  S
C3849      N3851   1.157       .  T
C3850      N3852   1.157       .  T
C3853      C3854   1.405       .  A
C3853      C3858   1.415       .  A
C3854      C3855   1.399       .  A
C3854      H3859   1.085       .  S
C3855      C3856   1.414       .  A
C3855      C3862   1.445       .  S
C3856      C3857   1.403       .  A
C3857      C3858   1.402       .  A
C3857      H3860   1.085       .  S
C3858      C3861   1.444       .  S
C3861      N3863   1.157       .  T
C3862      N3864   1.157       .  T
C3865      C3866   1.404       .  A
C3865      C3870   1.415       .  A
C3866      C3867   1.398       .  A
C3866      H3871   1.085       .  S
C3867      C3868   1.411       .  A
C3867      C3874   1.445       .  S
C3868      C3869   1.402       .  A
C3869      C3870   1.403       .  A
C3869      H3872   1.085       .  S
C3870      C3873   1.444       .  S
C3873      N3875   1.157       .  T
C3874      N3876   1.157       .  T
C3877      C3878   1.408       .  A
C3877      C3882   1.416       .  A
C3878      C3879   1.405       .  A
C3878      H3883   1.084       .  S
C3879      C3880   1.411       .  A
C3879      C3886   1.444       .  S
C3880      C3881   1.401       .  A
C3881      C3882   1.399       .  A
C3881      H3884   1.083       .  S
C3882      C3885   1.445       .  S
C3885      N3887   1.157       .  T
C3886      N3888   1.157       .  T
C3889      C3890   1.409       .  A
C3889      C3894   1.416       .  A
C3890      C3891   1.400       .  A
C3890      H3895   1.085       .  S
C3891      C3892   1.412       .  A
C3891      C3898   1.444       .  S
C3892      C3893   1.404       .  A
C3893      C3894   1.402       .  A
C3893      H3896   1.085       .  S
C3894      C3897   1.442       .  S
C3897      N3899   1.157       .  T
C3898      N3900   1.157       .  T
C3901      C3902   1.409       .  A
C3901      C3906   1.419       .  A
C3902      C3903   1.399       .  A
C3902      H3907   1.083       .  S
C3903      C3904   1.414       .  A
C3903      C3910   1.443       .  S
C3904      C3905   1.406       .  A
C3905      C3906   1.405       .  A
C3905      H3908   1.085       .  S
C3906      C3909   1.444       .  S
C3909      N3911   1.157       .  T
C3910      N3912   1.157       .  T
C3913      C3914   1.403       .  A
C3913      C3918   1.411       .  A
C3914      C3915   1.402       .  A
C3914      H3919   1.085       .  S
C3915      C3916   1.411       .  A
C3915      C3922   1.444       .  S
C3916      C3917   1.400       .  A
C3917      C3918   1.397       .  A
C3917      H3920   1.085       .  S
C3918      C3921   1.443       .  S
C3921      N3923   1.157       .  T
C3922      N3924   1.157       .  T
C3925      C3926   1.400       .  A
C3925      C3930   1.411       .  A
C3926      C3927   1.397       .  A
C3926      H3931   1.085       .  S
C3927      C3928   1.420       .  A
C3927      C3934   1.442       .  S
C3928      C3929   1.410       .  A
C3929      C3930   1.403       .  A
C3929      H3932   1.084       .  S
C3930      C3933   1.444       .  S
C3933      N3935   1.157       .  T
C3934      N3936   1.157       .  T
C3937      C3938   1.405       .  A
C3937      C3942   1.417       .  A
C3938      C3939   1.398       .  A
C3938      H3943   1.085       .  S
C3939      C3940   1.414       .  A
C3939      C3946   1.444       .  S
C3940      C3941   1.403       .  A
C3941      C3942   1.404       .  A
C3941      H3944   1.085       .  S
C3942      C3945   1.444       .  S
C3945      N3947   1.157       .  T
C3946      N3948   1.157       .  T
C3949      C3950   1.407       .  A
C3949      C3954   1.418       .  A
C3950      C3951   1.399       .  A
C3950      H3955   1.084       .  S
C3951      C3952   1.412       .  A
C3951      C3958   1.445       .  S
C3952      C3953   1.402       .  A
C3953      C3954   1.401       .  A
C3953      H3956   1.085       .  S
C3954      C3957   1.444       .  S
C3957      N3959   1.157       .  T
C3958      N3960   1.157       .  T
C3961      C3962   1.403       .  A
C3961      C3966   1.411       .  A
C3962      C3963   1.399       .  A
C3962      H3967   1.085       .  S
C3963      C3964   1.410       .  A
C3963      C3970   1.445       .  S
C3964      C3965   1.402       .  A
C3965      C3966   1.403       .  A
C3965      H3968   1.085       .  S
C3966      C3969   1.443       .  S
C3969      N3971   1.157       .  T
C3970      N3972   1.157       .  T
C3973      C3974   1.406       .  A
C3973      C3978   1.417       .  A
C3974      C3975   1.399       .  A
C3974      H3979   1.084       .  S
C3975      C3976   1.413       .  A
C3975      C3982   1.444       .  S
C3976      C3977   1.403       .  A
C3977      C3978   1.403       .  A
C3977      H3980   1.085       .  S
C3978      C3981   1.444       .  S
C3981      N3983   1.157       .  T
C3982      N3984   1.157       .  T
C3985      C3986   1.401       .  A
C3985      C3990   1.414       .  A
C3986      C3987   1.398       .  A
C3986      H3991   1.085       .  S
C3987      C3988   1.411       .  A
C3987      C3994   1.439       .  S
C3988      C3989   1.405       .  A
C3989      C3990   1.406       .  A
C3989      H3992   1.085       .  S
C3990      C3993   1.444       .  S
C3993      N3995   1.157       .  T
C3994      N3996   1.155       .  T
C3997      C3998   1.409       .  A
C3997      C4002   1.418       .  A
C3998      C3999   1.403       .  A
C3998      H4003   1.084       .  S
C3999      C4000   1.411       .  A
C3999      C4006   1.444       .  S
C4000      C4001   1.400       .  A
C4001      C4002   1.398       .  A
C4001      H4004   1.085       .  S
C4002      C4005   1.442       .  S
C4005      N4007   1.156       .  T
C4006      N4008   1.157       .  T
C4009      C4010   1.404       .  A
C4009      C4014   1.412       .  A
C4010      C4011   1.401       .  A
C4010      H4015   1.085       .  S
C4011      C4012   1.416       .  A
C4011      C4018   1.444       .  S
C4012      C4013   1.407       .  A
C4013      C4014   1.400       .  A
C4013      H4016   1.085       .  S
C4014      C4017   1.444       .  S
C4017      N4019   1.157       .  T
C4018      N4020   1.157       .  T
C4021      C4022   1.402       .  A
C4021      C4026   1.412       .  A
C4022      C4023   1.400       .  A
C4022      H4027   1.085       .  S
C4023      C4024   1.417       .  A
C4023      C4030   1.444       .  S
C4024      C4025   1.407       .  A
C4025      C4026   1.400       .  A
C4025      H4028   1.084       .  S
C4026      C4029   1.445       .  S
C4029      N4031   1.157       .  T
C4030      N4032   1.157       .  T
C4033      C4034   1.404       .  A
C4033      C4038   1.413       .  A
C4034      C4035   1.399       .  A
C4034      H4039   1.085       .  S
C4035      C4036   1.415       .  A
C4035      C4042   1.445       .  S
C4036      C4037   1.405       .  A
C4037      C4038   1.399       .  A
C4037      H4040   1.084       .  S
C4038      C4041   1.444       .  S
C4041      N4043   1.157       .  T
C4042      N4044   1.157       .  T
C4045      C4046   1.406       .  A
C4045      C4050   1.417       .  A
C4046      C4047   1.399       .  A
C4046      H4051   1.084       .  S
C4047      C4048   1.414       .  A
C4047      C4054   1.445       .  S
C4048      C4049   1.403       .  A
C4049      C4050   1.402       .  A
C4049      H4052   1.085       .  S
C4050      C4053   1.444       .  S
C4053      N4055   1.157       .  T
C4054      N4056   1.157       .  T
C4057      C4058   1.406       .  A
C4057      C4062   1.415       .  A
C4058      C4059   1.403       .  A
C4058      H4063   1.085       .  S
C4059      C4060   1.410       .  A
C4059      C4066   1.444       .  S
C4060      C4061   1.402       .  A
C4061      C4062   1.400       .  A
C4061      H4064   1.085       .  S
C4062      C4065   1.445       .  S
C4065      N4067   1.157       .  T
C4066      N4068   1.157       .  T
C4069      C4070   1.402       .  A
C4069      C4074   1.409       .  A
C4070      C4071   1.400       .  A
C4070      H4075   1.085       .  S
C4071      C4072   1.410       .  A
C4071      C4078   1.444       .  S
C4072      C4073   1.402       .  A
C4073      C4074   1.401       .  A
C4073      H4076   1.085       .  S
C4074      C4077   1.442       .  S
C4077      N4079   1.157       .  T
C4078      N4080   1.157       .  T
C4081      C4082   1.405       .  A
C4081      C4086   1.417       .  A
C4082      C4083   1.397       .  A
C4082      H4087   1.084       .  S
C4083      C4084   1.414       .  A
C4083      C4090   1.445       .  S
C4084      C4085   1.404       .  A
C4085      C4086   1.403       .  A
C4085      H4088   1.085       .  S
C4086      C4089   1.444       .  S
C4089      N4091   1.157       .  T
C4090      N4092   1.157       .  T
C4093      C4094   1.404       .  A
C4093      C4098   1.413       .  A
C4094      C4095   1.400       .  A
C4094      H4099   1.085       .  S
C4095      C4096   1.411       .  A
C4095      C4102   1.445       .  S
C4096      C4097   1.401       .  A
C4097      C4098   1.400       .  A
C4097      H4100   1.084       .  S
C4098      C4101   1.444       .  S
C4101      N4103   1.157       .  T
C4102      N4104   1.157       .  T
C4105      C4106   1.404       .  A
C4105      C4110   1.411       .  A
C4106      C4107   1.403       .  A
C4106      H4111   1.085       .  S
C4107      C4108   1.411       .  A
C4107      C4114   1.443       .  S
C4108      C4109   1.400       .  A
C4109      C4110   1.398       .  A
C4109      H4112   1.085       .  S
C4110      C4113   1.443       .  S
C4113      N4115   1.157       .  T
C4114      N4116   1.157       .  T
C4117      C4118   1.410       .  A
C4117      C4122   1.419       .  A
C4118      C4119   1.403       .  A
C4118      H4123   1.084       .  S
C4119      C4120   1.410       .  A
C4119      C4126   1.444       .  S
C4120      C4121   1.400       .  A
C4121      C4122   1.398       .  A
C4121      H4124   1.085       .  S
C4122      C4125   1.442       .  S
C4125      N4127   1.157       .  T
C4126      N4128   1.157       .  T
C4129      C4130   1.406       .  A
C4129      C4134   1.414       .  A
C4130      C4131   1.401       .  A
C4130      H4135   1.085       .  S
C4131      C4132   1.410       .  A
C4131      C4138   1.444       .  S
C4132      C4133   1.401       .  A
C4133      C4134   1.397       .  A
C4133      H4136   1.085       .  S
C4134      C4137   1.445       .  S
C4137      N4139   1.157       .  T
C4138      N4140   1.157       .  T
C4141      C4142   1.403       .  A
C4141      C4146   1.411       .  A
C4142      C4143   1.402       .  A
C4142      H4147   1.085       .  S
C4143      C4144   1.414       .  A
C4143      C4150   1.444       .  S
C4144      C4145   1.405       .  A
C4145      C4146   1.397       .  A
C4145      H4148   1.085       .  S
C4146      C4149   1.445       .  S
C4149      N4151   1.157       .  T
C4150      N4152   1.157       .  T
C4153      C4154   1.406       .  A
C4153      C4158   1.415       .  A
C4154      C4155   1.400       .  A
C4154      H4159   1.085       .  S
C4155      C4156   1.412       .  A
C4155      C4162   1.442       .  S
C4156      C4157   1.405       .  A
C4157      C4158   1.401       .  A
C4157      H4160   1.085       .  S
C4158      C4161   1.444       .  S
C4161      N4163   1.157       .  T
C4162      N4164   1.156       .  T
C4165      C4166   1.411       .  A
C4165      C4170   1.420       .  A
C4166      C4167   1.403       .  A
C4166      H4171   1.084       .  S
C4167      C4168   1.413       .  A
C4167      C4174   1.444       .  S
C4168      C4169   1.402       .  A
C4169      C4170   1.398       .  A
C4169      H4172   1.085       .  S
C4170      C4173   1.442       .  S
C4173      N4175   1.157       .  T
C4174      N4176   1.157       .  T
C4177      C4178   1.403       .  A
C4177      C4182   1.410       .  A
C4178      C4179   1.399       .  A
C4178      H4183   1.085       .  S
C4179      C4180   1.414       .  A
C4179      C4186   1.444       .  S
C4180      C4181   1.407       .  A
C4181      C4182   1.402       .  A
C4181      H4184   1.085       .  S
C4182      C4185   1.444       .  S
C4185      N4187   1.157       .  T
C4186      N4188   1.157       .  T
C4189      C4190   1.402       .  A
C4189      C4194   1.412       .  A
C4190      C4191   1.398       .  A
C4190      H4195   1.085       .  S
C4191      C4192   1.411       .  A
C4191      C4198   1.445       .  S
C4192      C4193   1.402       .  A
C4193      C4194   1.401       .  A
C4193      H4196   1.085       .  S
C4194      C4197   1.444       .  S
C4197      N4199   1.157       .  T
C4198      N4200   1.157       .  T
C4201      C4202   1.404       .  A
C4201      C4206   1.412       .  A
C4202      C4203   1.400       .  A
C4202      H4207   1.085       .  S
C4203      C4204   1.416       .  A
C4203      C4210   1.445       .  S
C4204      C4205   1.406       .  A
C4205      C4206   1.400       .  A
C4205      H4208   1.084       .  S
C4206      C4209   1.442       .  S
C4209      N4211   1.156       .  T
C4210      N4212   1.157       .  T
C4213      C4214   1.406       .  A
C4213      C4218   1.410       .  A
C4214      C4215   1.404       .  A
C4214      H4219   1.085       .  S
C4215      C4216   1.410       .  A
C4215      C4222   1.444       .  S
C4216      C4217   1.400       .  A
C4217      C4218   1.397       .  A
C4217      H4220   1.082       .  S
C4218      C4221   1.442       .  S
C4221      N4223   1.157       .  T
C4222      N4224   1.157       .  T
C4225      C4226   1.407       .  A
C4225      C4230   1.415       .  A
C4226      C4227   1.401       .  A
C4226      H4231   1.085       .  S
C4227      C4228   1.410       .  A
C4227      C4234   1.444       .  S
C4228      C4229   1.403       .  A
C4229      C4230   1.402       .  A
C4229      H4232   1.085       .  S
C4230      C4233   1.444       .  S
C4233      N4235   1.157       .  T
C4234      N4236   1.157       .  T
C4237      C4238   1.411       .  A
C4237      C4242   1.422       .  A
C4238      C4239   1.402       .  A
C4238      H4243   1.084       .  S
C4239      C4240   1.413       .  A
C4239      C4246   1.444       .  S
C4240      C4241   1.401       .  A
C4241      C4242   1.399       .  A
C4241      H4244   1.085       .  S
C4242      C4245   1.442       .  S
C4245      N4247   1.157       .  T
C4246      N4248   1.157       .  T
C4249      C4250   1.407       .  A
C4249      C4254   1.418       .  A
C4250      C4251   1.400       .  A
C4250      H4255   1.084       .  S
C4251      C4252   1.414       .  A
C4251      C4258   1.445       .  S
C4252      C4253   1.404       .  A
C4253      C4254   1.404       .  A
C4253      H4256   1.085       .  S
C4254      C4257   1.444       .  S
C4257      N4259   1.157       .  T
C4258      N4260   1.157       .  T
C4261      C4262   1.407       .  A
C4261      C4266   1.415       .  A
C4262      C4263   1.401       .  A
C4262      H4267   1.085       .  S
C4263      C4264   1.411       .  A
C4263      C4270   1.445       .  S
C4264      C4265   1.399       .  A
C4265      C4266   1.400       .  A
C4265      H4268   1.085       .  S
C4266      C4269   1.441       .  S
C4269      N4271   1.156       .  T
C4270      N4272   1.157       .  T
C4273      C4274   1.405       .  A
C4273      C4278   1.413       .  A
C4274      C4275   1.402       .  A
C4274      H4279   1.085       .  S
C4275      C4276   1.414       .  A
C4275      C4282   1.444       .  S
C4276      C4277   1.406       .  A
C4277      C4278   1.401       .  A
C4277      H4280   1.085       .  S
C4278      C4281   1.444       .  S
C4281      N4283   1.157       .  T
C4282      N4284   1.157       .  T
C4285      C4286   1.404       .  A
C4285      C4290   1.414       .  A
C4286      C4287   1.400       .  A
C4286      H4291   1.085       .  S
C4287      C4288   1.416       .  A
C4287      C4294   1.444       .  S
C4288      C4289   1.406       .  A
C4289      C4290   1.403       .  A
C4289      H4292   1.085       .  S
C4290      C4293   1.444       .  S
C4293      N4295   1.157       .  T
C4294      N4296   1.157       .  T
C4297      C4298   1.405       .  A
C4297      C4302   1.414       .  A
C4298      C4299   1.401       .  A
C4298      H4303   1.085       .  S
C4299      C4300   1.413       .  A
C4299      C4306   1.442       .  S
C4300      C4301   1.406       .  A
C4301      C4302   1.400       .  A
C4301      H4304   1.085       .  S
C4302      C4305   1.444       .  S
C4305      N4307   1.157       .  T
C4306      N4308   1.157       .  T
C4309      C4310   1.403       .  A
C4309      C4314   1.412       .  A
C4310      C4311   1.402       .  A
C4310      H4315   1.085       .  S
C4311      C4312   1.412       .  A
C4311      C4318   1.444       .  S
C4312      C4313   1.401       .  A
C4313      C4314   1.399       .  A
C4313      H4316   1.085       .  S
C4314      C4317   1.443       .  S
C4317      N4319   1.157       .  T
C4318      N4320   1.157       .  T
C4321      C4322   1.405       .  A
C4321      C4326   1.414       .  A
C4322      C4323   1.401       .  A
C4322      H4327   1.085       .  S
C4323      C4324   1.414       .  A
C4323      C4330   1.444       .  S
C4324      C4325   1.405       .  A
C4325      C4326   1.401       .  A
C4325      H4328   1.085       .  S
C4326      C4329   1.444       .  S
C4329      N4331   1.157       .  T
C4330      N4332   1.157       .  T
C4333      C4334   1.403       .  A
C4333      C4338   1.413       .  A
C4334      C4335   1.398       .  A
C4334      H4339   1.085       .  S
C4335      C4336   1.414       .  A
C4335      C4342   1.440       .  S
C4336      C4337   1.408       .  A
C4337      C4338   1.403       .  A
C4337      H4340   1.085       .  S
C4338      C4341   1.444       .  S
C4341      N4343   1.157       .  T
C4342      N4344   1.156       .  T
C4345      C4346   1.402       .  A
C4345      C4350   1.409       .  A
C4346      C4347   1.400       .  A
C4346      H4351   1.085       .  S
C4347      C4348   1.409       .  A
C4347      C4354   1.444       .  S
C4348      C4349   1.402       .  A
C4349      C4350   1.401       .  A
C4349      H4352   1.085       .  S
C4350      C4353   1.444       .  S
C4353      N4355   1.157       .  T
C4354      N4356   1.157       .  T
C4357      C4358   1.404       .  A
C4357      C4362   1.414       .  A
C4358      C4359   1.399       .  A
C4358      H4363   1.085       .  S
C4359      C4360   1.413       .  A
C4359      C4366   1.445       .  S
C4360      C4361   1.404       .  A
C4361      C4362   1.400       .  A
C4361      H4364   1.085       .  S
C4362      C4365   1.444       .  S
C4365      N4367   1.157       .  T
C4366      N4368   1.157       .  T
C4369      C4370   1.403       .  A
C4369      C4374   1.413       .  A
C4370      C4371   1.399       .  A
C4370      H4375   1.085       .  S
C4371      C4372   1.414       .  A
C4371      C4378   1.444       .  S
C4372      C4373   1.405       .  A
C4373      C4374   1.402       .  A
C4373      H4376   1.085       .  S
C4374      C4377   1.444       .  S
C4377      N4379   1.157       .  T
C4378      N4380   1.157       .  T
C4381      C4382   1.404       .  A
C4381      C4386   1.412       .  A
C4382      C4383   1.401       .  A
C4382      H4387   1.085       .  S
C4383      C4384   1.412       .  A
C4383      C4390   1.444       .  S
C4384      C4385   1.405       .  A
C4385      C4386   1.398       .  A
C4385      H4388   1.085       .  S
C4386      C4389   1.444       .  S
C4389      N4391   1.157       .  T
C4390      N4392   1.157       .  T
C4393      C4394   1.404       .  A
C4393      C4398   1.413       .  A
C4394      C4395   1.400       .  A
C4394      H4399   1.085       .  S
C4395      C4396   1.414       .  A
C4395      C4402   1.444       .  S
C4396      C4397   1.405       .  A
C4397      C4398   1.402       .  A
C4397      H4400   1.085       .  S
C4398      C4401   1.444       .  S
C4401      N4403   1.157       .  T
C4402      N4404   1.157       .  T
C4405      C4406   1.405       .  A
C4405      C4410   1.415       .  A
C4406      C4407   1.400       .  A
C4406      H4411   1.085       .  S
C4407      C4408   1.413       .  A
C4407      C4414   1.444       .  S
C4408      C4409   1.403       .  A
C4409      C4410   1.399       .  A
C4409      H4412   1.085       .  S
C4410      C4413   1.444       .  S
C4413      N4415   1.157       .  T
C4414      N4416   1.157       .  T
C4417      C4418   1.404       .  A
C4417      C4422   1.413       .  A
C4418      C4419   1.400       .  A
C4418      H4423   1.085       .  S
C4419      C4420   1.412       .  A
C4419      C4426   1.444       .  S
C4420      C4421   1.403       .  A
C4421      C4422   1.402       .  A
C4421      H4424   1.085       .  S
C4422      C4425   1.444       .  S
C4425      N4427   1.157       .  T
C4426      N4428   1.157       .  T
C4429      C4430   1.404       .  A
C4429      C4434   1.414       .  A
C4430      C4431   1.400       .  A
C4430      H4435   1.085       .  S
C4431      C4432   1.414       .  A
C4431      C4438   1.444       .  S
C4432      C4433   1.405       .  A
C4433      C4434   1.402       .  A
C4433      H4436   1.085       .  S
C4434      C4437   1.444       .  S
C4437      N4439   1.157       .  T
C4438      N4440   1.157       .  T
C4441      C4442   1.404       .  A
C4441      C4446   1.412       .  A
C4442      C4443   1.400       .  A
C4442      H4447   1.085       .  S
C4443      C4444   1.411       .  A
C4443      C4450   1.444       .  S
C4444      C4445   1.403       .  A
C4445      C4446   1.401       .  A
C4445      H4448   1.085       .  S
C4446      C4449   1.444       .  S
C4449      N4451   1.157       .  T
C4450      N4452   1.157       .  T
C4453      C4454   1.401       .  A
C4453      C4458   1.413       .  A
C4454      C4455   1.398       .  A
C4454      H4459   1.085       .  S
C4455      C4456   1.413       .  A
C4455      C4462   1.443       .  S
C4456      C4457   1.404       .  A
C4457      C4458   1.404       .  A
C4457      H4460   1.084       .  S
C4458      C4461   1.444       .  S
C4461      N4463   1.157       .  T
C4462      N4464   1.157       .  T
C4465      C4466   1.405       .  A
C4465      C4470   1.415       .  A
C4466      C4467   1.400       .  A
C4466      H4471   1.085       .  S
C4467      C4468   1.411       .  A
C4467      C4474   1.443       .  S
C4468      C4469   1.401       .  A
C4469      C4470   1.402       .  A
C4469      H4472   1.085       .  S
C4470      C4473   1.441       .  S
C4473      N4475   1.156       .  T
C4474      N4476   1.157       .  T
C4477      C4478   1.404       .  A
C4477      C4482   1.412       .  A
C4478      C4479   1.400       .  A
C4478      H4483   1.085       .  S
C4479      C4480   1.412       .  A
C4479      C4486   1.444       .  S
C4480      C4481   1.401       .  A
C4481      C4482   1.399       .  A
C4481      H4484   1.085       .  S
C4482      C4485   1.442       .  S
C4485      N4487   1.157       .  T
C4486      N4488   1.157       .  T
C4489      C4490   1.405       .  A
C4489      C4494   1.414       .  A
C4490      C4491   1.401       .  A
C4490      H4495   1.085       .  S
C4491      C4492   1.413       .  A
C4491      C4498   1.443       .  S
C4492      C4493   1.405       .  A
C4493      C4494   1.401       .  A
C4493      H4496   1.085       .  S
C4494      C4497   1.443       .  S
C4497      N4499   1.157       .  T
C4498      N4500   1.157       .  T
C4501      C4502   1.403       .  A
C4501      C4506   1.411       .  A
C4502      C4503   1.401       .  A
C4502      H4507   1.085       .  S
C4503      C4504   1.410       .  A
C4503      C4510   1.443       .  S
C4504      C4505   1.402       .  A
C4505      C4506   1.401       .  A
C4505      H4508   1.085       .  S
C4506      C4509   1.444       .  S
C4509      N4511   1.157       .  T
C4510      N4512   1.157       .  T
C4513      C4514   1.403       .  A
C4513      C4518   1.411       .  A
C4514      C4515   1.400       .  A
C4514      H4519   1.085       .  S
C4515      C4516   1.411       .  A
C4515      C4522   1.444       .  S
C4516      C4517   1.403       .  A
C4517      C4518   1.400       .  A
C4517      H4520   1.085       .  S
C4518      C4521   1.444       .  S
C4521      N4523   1.157       .  T
C4522      N4524   1.157       .  T
C4525      C4526   1.403       .  A
C4525      C4530   1.412       .  A
C4526      C4527   1.398       .  A
C4526      H4531   1.085       .  S
C4527      C4528   1.412       .  A
C4527      C4534   1.441       .  S
C4528      C4529   1.406       .  A
C4529      C4530   1.401       .  A
C4529      H4532   1.085       .  S
C4530      C4533   1.444       .  S
C4533      N4535   1.157       .  T
C4534      N4536   1.156       .  T
C4537      C4538   1.401       .  A
C4537      C4542   1.410       .  A
C4538      C4539   1.399       .  A
C4538      H4543   1.085       .  S
C4539      C4540   1.409       .  A
C4539      C4546   1.443       .  S
C4540      C4541   1.401       .  A
C4541      C4542   1.399       .  A
C4541      H4544   1.085       .  S
C4542      C4545   1.444       .  S
C4545      N4547   1.157       .  T
C4546      N4548   1.157       .  T
C4549      C4550   1.404       .  A
C4549      C4554   1.412       .  A
C4550      C4551   1.399       .  A
C4550      H4555   1.085       .  S
C4551      C4552   1.413       .  A
C4551      C4558   1.444       .  S
C4552      C4553   1.405       .  A
C4553      C4554   1.399       .  A
C4553      H4556   1.085       .  S
C4554      C4557   1.444       .  S
C4557      N4559   1.157       .  T
C4558      N4560   1.157       .  T
C4561      C4562   1.405       .  A
C4561      C4566   1.414       .  A
C4562      C4563   1.401       .  A
C4562      H4567   1.085       .  S
C4563      C4564   1.413       .  A
C4563      C4570   1.444       .  S
C4564      C4565   1.404       .  A
C4565      C4566   1.400       .  A
C4565      H4568   1.085       .  S
C4566      C4569   1.444       .  S
C4569      N4571   1.157       .  T
C4570      N4572   1.157       .  T
C4573      C4574   1.403       .  A
C4573      C4578   1.411       .  A
C4574      C4575   1.400       .  A
C4574      H4579   1.085       .  S
C4575      C4576   1.412       .  A
C4575      C4582   1.444       .  S
C4576      C4577   1.404       .  A
C4577      C4578   1.400       .  A
C4577      H4580   1.085       .  S
C4578      C4581   1.444       .  S
C4581      N4583   1.157       .  T
C4582      N4584   1.157       .  T
C4585      C4586   1.406       .  A
C4585      C4590   1.412       .  A
C4586      C4587   1.402       .  A
C4586      H4591   1.085       .  S
C4587      C4588   1.414       .  A
C4587      C4594   1.443       .  S
C4588      C4589   1.406       .  A
C4589      C4590   1.399       .  A
C4589      H4592   1.084       .  S
C4590      C4593   1.445       .  S
C4593      N4595   1.157       .  T
C4594      N4596   1.157       .  T
C4597      C4598   1.405       .  A
C4597      C4602   1.413       .  A
C4598      C4599   1.402       .  A
C4598      H4603   1.085       .  S
C4599      C4600   1.413       .  A
C4599      C4606   1.444       .  S
C4600      C4601   1.404       .  A
C4601      C4602   1.401       .  A
C4601      H4604   1.085       .  S
C4602      C4605   1.444       .  S
C4605      N4607   1.157       .  T
C4606      N4608   1.157       .  T
C4609      C4610   1.405       .  A
C4609      C4614   1.413       .  A
C4610      C4611   1.402       .  A
C4610      H4615   1.085       .  S
C4611      C4612   1.413       .  A
C4611      C4618   1.444       .  S
C4612      C4613   1.405       .  A
C4613      C4614   1.400       .  A
C4613      H4616   1.085       .  S
C4614      C4617   1.444       .  S
C4617      N4619   1.157       .  T
C4618      N4620   1.157       .  T
C4621      C4622   1.404       .  A
C4621      C4626   1.415       .  A
C4622      C4623   1.400       .  A
C4622      H4627   1.085       .  S
C4623      C4624   1.413       .  A
C4623      C4630   1.445       .  S
C4624      C4625   1.402       .  A
C4625      C4626   1.402       .  A
C4625      H4628   1.085       .  S
C4626      C4629   1.444       .  S
C4629      N4631   1.157       .  T
C4630      N4632   1.157       .  T
C4633      C4634   1.401       .  A
C4633      C4638   1.411       .  A
C4634      C4635   1.398       .  A
C4634      H4639   1.085       .  S
C4635      C4636   1.414       .  A
C4635      C4642   1.444       .  S
C4636      C4637   1.405       .  A
C4637      C4638   1.402       .  A
C4637      H4640   1.085       .  S
C4638      C4641   1.444       .  S
C4641      N4643   1.157       .  T
C4642      N4644   1.157       .  T
C4645      C4646   1.403       .  A
C4645      C4650   1.412       .  A
C4646      C4647   1.399       .  A
C4646      H4651   1.085       .  S
C4647      C4648   1.414       .  A
C4647      C4654   1.445       .  S
C4648      C4649   1.403       .  A
C4649      C4650   1.398       .  A
C4649      H4652   1.085       .  S
C4650      C4653   1.444       .  S
C4653      N4655   1.157       .  T
C4654      N4656   1.157       .  T
C4657      C4658   1.402       .  A
C4657      C4662   1.414       .  A
C4658      C4659   1.398       .  A
C4658      H4663   1.085       .  S
C4659      C4660   1.411       .  A
C4659      C4666   1.443       .  S
C4660      C4661   1.402       .  A
C4661      C4662   1.402       .  A
C4661      H4664   1.085       .  S
C4662      C4665   1.444       .  S
C4665      N4667   1.157       .  T
C4666      N4668   1.157       .  T
C4669      C4670   1.405       .  A
C4669      C4674   1.410       .  A
C4670      C4671   1.403       .  A
C4670      H4675   1.085       .  S
C4671      C4672   1.411       .  A
C4671      C4678   1.443       .  S
C4672      C4673   1.403       .  A
C4673      C4674   1.397       .  A
C4673      H4676   1.085       .  S
C4674      C4677   1.443       .  S
C4677      N4679   1.157       .  T
C4678      N4680   1.157       .  T
C4681      C4682   1.406       .  A
C4681      C4686   1.415       .  A
C4682      C4683   1.401       .  A
C4682      H4687   1.085       .  S
C4683      C4684   1.414       .  A
C4683      C4690   1.444       .  S
C4684      C4685   1.404       .  A
C4685      C4686   1.400       .  A
C4685      H4688   1.085       .  S
C4686      C4689   1.442       .  S
C4689      N4691   1.156       .  T
C4690      N4692   1.157       .  T
C4693      C4694   1.403       .  A
C4693      C4698   1.412       .  A
C4694      C4695   1.400       .  A
C4694      H4699   1.085       .  S
C4695      C4696   1.411       .  A
C4695      C4702   1.441       .  S
C4696      C4697   1.405       .  A
C4697      C4698   1.402       .  A
C4697      H4700   1.085       .  S
C4698      C4701   1.444       .  S
C4701      N4703   1.157       .  T
C4702      N4704   1.156       .  T
C4705      C4706   1.404       .  A
C4705      C4710   1.411       .  A
C4706      C4707   1.400       .  A
C4706      H4711   1.085       .  S
C4707      C4708   1.412       .  A
C4707      C4714   1.444       .  S
C4708      C4709   1.401       .  A
C4709      C4710   1.399       .  A
C4709      H4712   1.085       .  S
C4710      C4713   1.442       .  S
C4713      N4715   1.157       .  T
C4714      N4716   1.157       .  T
C4717      C4718   1.407       .  A
C4717      C4722   1.416       .  A
C4718      C4719   1.400       .  A
C4718      H4723   1.085       .  S
C4719      C4720   1.413       .  A
C4719      C4726   1.445       .  S
C4720      C4721   1.402       .  A
C4721      C4722   1.400       .  A
C4721      H4724   1.085       .  S
C4722      C4725   1.441       .  S
C4725      N4727   1.156       .  T
C4726      N4728   1.157       .  T
C4729      C4730   1.404       .  A
C4729      C4734   1.413       .  A
C4730      C4731   1.401       .  A
C4730      H4735   1.085       .  S
C4731      C4732   1.414       .  A
C4731      C4738   1.444       .  S
C4732      C4733   1.404       .  A
C4733      C4734   1.401       .  A
C4733      H4736   1.085       .  S
C4734      C4737   1.444       .  S
C4737      N4739   1.157       .  T
C4738      N4740   1.157       .  T
C4741      C4742   1.402       .  A
C4741      C4746   1.414       .  A
C4742      C4743   1.397       .  A
C4742      H4747   1.085       .  S
C4743      C4744   1.412       .  A
C4743      C4750   1.444       .  S
C4744      C4745   1.403       .  A
C4745      C4746   1.403       .  A
C4745      H4748   1.085       .  S
C4746      C4749   1.443       .  S
C4749      N4751   1.157       .  T
C4750      N4752   1.157       .  T
C4753      C4754   1.402       .  A
C4753      C4758   1.410       .  A
C4754      C4755   1.399       .  A
C4754      H4759   1.085       .  S
C4755      C4756   1.411       .  A
C4755      C4762   1.444       .  S
C4756      C4757   1.402       .  A
C4757      C4758   1.400       .  A
C4757      H4760   1.085       .  S
C4758      C4761   1.443       .  S
C4761      N4763   1.157       .  T
C4762      N4764   1.157       .  T
C4765      C4766   1.405       .  A
C4765      C4770   1.412       .  A
C4766      C4767   1.401       .  A
C4766      H4771   1.085       .  S
C4767      C4768   1.413       .  A
C4767      C4774   1.444       .  S
C4768      C4769   1.404       .  A
C4769      C4770   1.400       .  A
C4769      H4772   1.085       .  S
C4770      C4773   1.444       .  S
C4773      N4775   1.157       .  T
C4774      N4776   1.157       .  T
C4777      C4778   1.405       .  A
C4777      C4782   1.413       .  A
C4778      C4779   1.400       .  A
C4778      H4783   1.085       .  S
C4779      C4780   1.413       .  A
C4779      C4786   1.444       .  S
C4780      C4781   1.405       .  A
C4781      C4782   1.401       .  A
C4781      H4784   1.085       .  S
C4782      C4785   1.444       .  S
C4785      N4787   1.157       .  T
C4786      N4788   1.157       .  T
C4789      C4790   1.402       .  A
C4789      C4794   1.413       .  A
C4790      C4791   1.399       .  A
C4790      H4795   1.085       .  S
C4791      C4792   1.416       .  A
C4791      C4798   1.444       .  S
C4792      C4793   1.405       .  A
C4793      C4794   1.401       .  A
C4793      H4796   1.085       .  S
C4794      C4797   1.445       .  S
C4797      N4799   1.157       .  T
C4798      N4800   1.157       .  T
C4801      C4802   1.402       .  A
C4801      C4806   1.412       .  A
C4802      C4803   1.396       .  A
C4802      H4807   1.085       .  S
C4803      C4804   1.413       .  A
C4803      C4810   1.441       .  S
C4804      C4805   1.407       .  A
C4805      C4806   1.403       .  A
C4805      H4808   1.085       .  S
C4806      C4809   1.444       .  S
C4809      N4811   1.157       .  T
C4810      N4812   1.156       .  T
C4813      C4814   1.403       .  A
C4813      C4818   1.413       .  A
C4814      C4815   1.399       .  A
C4814      H4819   1.085       .  S
C4815      C4816   1.413       .  A
C4815      C4822   1.444       .  S
C4816      C4817   1.403       .  A
C4817      C4818   1.400       .  A
C4817      H4820   1.085       .  S
C4818      C4821   1.444       .  S
C4821      N4823   1.157       .  T
C4822      N4824   1.157       .  T
C4825      C4826   1.406       .  A
C4825      C4830   1.414       .  A
C4826      C4827   1.400       .  A
C4826      H4831   1.085       .  S
C4827      C4828   1.411       .  A
C4827      C4834   1.444       .  S
C4828      C4829   1.404       .  A
C4829      C4830   1.399       .  A
C4829      H4832   1.085       .  S
C4830      C4833   1.445       .  S
C4833      N4835   1.157       .  T
C4834      N4836   1.157       .  T
C4837      C4838   1.404       .  A
C4837      C4842   1.412       .  A
C4838      C4839   1.399       .  A
C4838      H4843   1.085       .  S
C4839      C4840   1.411       .  A
C4839      C4846   1.444       .  S
C4840      C4841   1.403       .  A
C4841      C4842   1.399       .  A
C4841      H4844   1.085       .  S
C4842      C4845   1.444       .  S
C4845      N4847   1.157       .  T
C4846      N4848   1.157       .  T
C4849      C4850   1.403       .  A
C4849      C4854   1.409       .  A
C4850      C4851   1.402       .  A
C4850      H4855   1.085       .  S
C4851      C4852   1.409       .  A
C4851      C4858   1.443       .  S
C4852      C4853   1.401       .  A
C4853      C4854   1.398       .  A
C4853      H4856   1.085       .  S
C4854      C4857   1.444       .  S
C4857      N4859   1.157       .  T
C4858      N4860   1.157       .  T
C4861      C4862   1.404       .  A
C4861      C4866   1.413       .  A
C4862      C4863   1.401       .  A
C4862      H4867   1.085       .  S
C4863      C4864   1.413       .  A
C4863      C4870   1.444       .  S
C4864      C4865   1.403       .  A
C4865      C4866   1.397       .  A
C4865      H4868   1.085       .  S
C4866      C4869   1.445       .  S
C4869      N4871   1.157       .  T
C4870      N4872   1.157       .  T
C4873      C4874   1.404       .  A
C4873      C4878   1.414       .  A
C4874      C4875   1.400       .  A
C4874      H4879   1.085       .  S
C4875      C4876   1.413       .  A
C4875      C4882   1.444       .  S
C4876      C4877   1.403       .  A
C4877      C4878   1.400       .  A
C4877      H4880   1.085       .  S
C4878      C4881   1.444       .  S
C4881      N4883   1.157       .  T
C4882      N4884   1.157       .  T
C4885      C4886   1.404       .  A
C4885      C4890   1.414       .  A
C4886      C4887   1.401       .  A
C4886      H4891   1.085       .  S
C4887      C4888   1.413       .  A
C4887      C4894   1.444       .  S
C4888      C4889   1.403       .  A
C4889      C4890   1.399       .  A
C4889      H4892   1.085       .  S
C4890      C4893   1.445       .  S
C4893      N4895   1.157       .  T
C4894      N4896   1.157       .  T
C4897      C4898   1.405       .  A
C4897      C4902   1.410       .  A
C4898      C4899   1.402       .  A
C4898      H4903   1.085       .  S
C4899      C4900   1.410       .  A
C4899      C4906   1.444       .  S
C4900      C4901   1.402       .  A
C4901      C4902   1.397       .  A
C4901      H4904   1.085       .  S
C4902      C4905   1.442       .  S
C4905      N4907   1.157       .  T
C4906      N4908   1.157       .  T
C4909      C4910   1.406       .  A
C4909      C4914   1.414       .  A
C4910      C4911   1.400       .  A
C4910      H4915   1.085       .  S
C4911      C4912   1.410       .  A
C4911      C4918   1.442       .  S
C4912      C4913   1.403       .  A
C4913      C4914   1.401       .  A
C4913      H4916   1.085       .  S
C4914      C4917   1.442       .  S
C4917      N4919   1.157       .  T
C4918      N4920   1.157       .  T
C4921      C4922   1.402       .  A
C4921      C4926   1.409       .  A
C4922      C4923   1.398       .  A
C4922      H4927   1.085       .  S
C4923      C4924   1.409       .  A
C4923      C4930   1.443       .  S
C4924      C4925   1.404       .  A
C4925      C4926   1.401       .  A
C4925      H4928   1.085       .  S
C4926      C4929   1.443       .  S
C4929      N4931   1.157       .  T
C4930      N4932   1.157       .  T
C4933      C4934   1.404       .  A
C4933      C4938   1.414       .  A
C4934      C4935   1.401       .  A
C4934      H4939   1.085       .  S
C4935      C4936   1.415       .  A
C4935      C4942   1.444       .  S
C4936      C4937   1.405       .  A
C4937      C4938   1.400       .  A
C4937      H4940   1.085       .  S
C4938      C4941   1.444       .  S
C4941      N4943   1.157       .  T
C4942      N4944   1.157       .  T
C4945      C4946   1.405       .  A
C4945      C4950   1.414       .  A
C4946      C4947   1.401       .  A
C4946      H4951   1.085       .  S
C4947      C4948   1.413       .  A
C4947      C4954   1.444       .  S
C4948      C4949   1.403       .  A
C4949      C4950   1.400       .  A
C4949      H4952   1.085       .  S
C4950      C4953   1.442       .  S
C4953      N4955   1.157       .  T
C4954      N4956   1.157       .  T
C4957      C4958   1.405       .  A
C4957      C4962   1.413       .  A
C4958      C4959   1.402       .  A
C4958      H4963   1.085       .  S
C4959      C4960   1.413       .  A
C4959      C4966   1.444       .  S
C4960      C4961   1.405       .  A
C4961      C4962   1.399       .  A
C4961      H4964   1.085       .  S
C4962      C4965   1.444       .  S
C4965      N4967   1.157       .  T
C4966      N4968   1.157       .  T
C4969      C4970   1.404       .  A
C4969      C4974   1.412       .  A
C4970      C4971   1.402       .  A
C4970      H4975   1.085       .  S
C4971      C4972   1.413       .  A
C4971      C4978   1.444       .  S
C4972      C4973   1.404       .  A
C4973      C4974   1.400       .  A
C4973      H4976   1.085       .  S
C4974      C4977   1.444       .  S
C4977      N4979   1.157       .  T
C4978      N4980   1.157       .  T
C4981      C4982   1.404       .  A
C4981      C4986   1.413       .  A
C4982      C4983   1.400       .  A
C4982      H4987   1.085       .  S
C4983      C4984   1.413       .  A
C4983      C4990   1.444       .  S
C4984      C4985   1.406       .  A
C4985      C4986   1.402       .  A
C4985      H4988   1.085       .  S
C4986      C4989   1.444       .  S
C4989      N4991   1.157       .  T
C4990      N4992   1.157       .  T
C4993      C4994   1.405       .  A
C4993      C4998   1.414       .  A
C4994      C4995   1.400       .  A
C4994      H4999   1.085       .  S
C4995      C4996   1.414       .  A
C4995      C5002   1.445       .  S
C4996      C4997   1.404       .  A
C4997      C4998   1.402       .  A
C4997      H5000   1.085       .  S
C4998      C5001   1.444       .  S
C5001      N5003   1.157       .  T
C5002      N5004   1.157       .  T
C5005      C5006   1.406       .  A
C5005      C5010   1.414       .  A
C5006      C5007   1.402       .  A
C5006      H5011   1.085       .  S
C5007      C5008   1.412       .  A
C5007      C5014   1.443       .  S
C5008      C5009   1.405       .  A
C5009      C5010   1.401       .  A
C5009      H5012   1.085       .  S
C5010      C5013   1.445       .  S
C5013      N5015   1.157       .  T
C5014      N5016   1.157       .  T
C5017      C5018   1.404       .  A
C5017      C5022   1.414       .  A
C5018      C5019   1.400       .  A
C5018      H5023   1.085       .  S
C5019      C5020   1.414       .  A
C5019      C5026   1.445       .  S
C5020      C5021   1.404       .  A
C5021      C5022   1.402       .  A
C5021      H5024   1.085       .  S
C5022      C5025   1.444       .  S
C5025      N5027   1.157       .  T
C5026      N5028   1.157       .  T
C5029      C5030   1.403       .  A
C5029      C5034   1.412       .  A
C5030      C5031   1.400       .  A
C5030      H5035   1.085       .  S
C5031      C5032   1.413       .  A
C5031      C5038   1.444       .  S
C5032      C5033   1.403       .  A
C5033      C5034   1.397       .  A
C5033      H5036   1.085       .  S
C5034      C5037   1.444       .  S
C5037      N5039   1.157       .  T
C5038      N5040   1.157       .  T
C5041      C5042   1.403       .  A
C5041      C5046   1.413       .  A
C5042      C5043   1.399       .  A
C5042      H5047   1.085       .  S
C5043      C5044   1.410       .  A
C5043      C5050   1.443       .  S
C5044      C5045   1.402       .  A
C5045      C5046   1.400       .  A
C5045      H5048   1.085       .  S
C5046      C5049   1.444       .  S
C5049      N5051   1.157       .  T
C5050      N5052   1.157       .  T
C5053      C5054   1.401       .  A
C5053      C5058   1.413       .  A
C5054      C5055   1.397       .  A
C5054      H5059   1.085       .  S
C5055      C5056   1.416       .  A
C5055      C5062   1.441       .  S
C5056      C5057   1.408       .  A
C5057      C5058   1.403       .  A
C5057      H5060   1.085       .  S
C5058      C5061   1.444       .  S
C5061      N5063   1.157       .  T
C5062      N5064   1.156       .  T
C5065      C5066   1.404       .  A
C5065      C5070   1.411       .  A
C5066      C5067   1.402       .  A
C5066      H5071   1.085       .  S
C5067      C5068   1.411       .  A
C5067      C5074   1.443       .  S
C5068      C5069   1.403       .  A
C5069      C5070   1.400       .  A
C5069      H5072   1.085       .  S
C5070      C5073   1.443       .  S
C5073      N5075   1.157       .  T
C5074      N5076   1.157       .  T
C5077      C5078   1.404       .  A
C5077      C5082   1.413       .  A
C5078      C5079   1.401       .  A
C5078      H5083   1.085       .  S
C5079      C5080   1.413       .  A
C5079      C5086   1.444       .  S
C5080      C5081   1.405       .  A
C5081      C5082   1.400       .  A
C5081      H5084   1.085       .  S
C5082      C5085   1.444       .  S
C5085      N5087   1.157       .  T
C5086      N5088   1.157       .  T
C5089      C5090   1.407       .  A
C5089      C5094   1.413       .  A
C5090      C5091   1.403       .  A
C5090      H5095   1.085       .  S
C5091      C5092   1.412       .  A
C5091      C5098   1.444       .  S
C5092      C5093   1.404       .  A
C5093      C5094   1.399       .  A
C5093      H5096   1.085       .  S
C5094      C5097   1.442       .  S
C5097      N5099   1.157       .  T
C5098      N5100   1.157       .  T
C5101      C5102   1.404       .  A
C5101      C5106   1.414       .  A
C5102      C5103   1.400       .  A
C5102      H5107   1.085       .  S
C5103      C5104   1.413       .  A
C5103      C5110   1.444       .  S
C5104      C5105   1.402       .  A
C5105      C5106   1.400       .  A
C5105      H5108   1.085       .  S
C5106      C5109   1.444       .  S
C5109      N5111   1.157       .  T
C5110      N5112   1.157       .  T
C5113      C5114   1.401       .  A
C5113      C5118   1.410       .  A
C5114      C5115   1.398       .  A
C5114      H5119   1.085       .  S
C5115      C5116   1.410       .  A
C5115      C5122   1.443       .  S
C5116      C5117   1.402       .  A
C5117      C5118   1.400       .  A
C5117      H5120   1.085       .  S
C5118      C5121   1.444       .  S
C5121      N5123   1.157       .  T
C5122      N5124   1.157       .  T
C5125      C5126   1.405       .  A
C5125      C5130   1.415       .  A
C5126      C5127   1.401       .  A
C5126      H5131   1.085       .  S
C5127      C5128   1.413       .  A
C5127      C5134   1.444       .  S
C5128      C5129   1.403       .  A
C5129      C5130   1.401       .  A
C5129      H5132   1.085       .  S
C5130      C5133   1.444       .  S
C5133      N5135   1.157       .  T
C5134      N5136   1.157       .  T
C5137      C5138   1.405       .  A
C5137      C5142   1.412       .  A
C5138      C5139   1.400       .  A
C5138      H5143   1.085       .  S
C5139      C5140   1.413       .  A
C5139      C5146   1.444       .  S
C5140      C5141   1.406       .  A
C5141      C5142   1.398       .  A
C5141      H5144   1.084       .  S
C5142      C5145   1.445       .  S
C5145      N5147   1.157       .  T
C5146      N5148   1.157       .  T
C5149      C5150   1.401       .  A
C5149      C5154   1.413       .  A
C5150      C5151   1.398       .  A
C5150      H5155   1.085       .  S
C5151      C5152   1.417       .  A
C5151      C5158   1.444       .  S
C5152      C5153   1.405       .  A
C5153      C5154   1.401       .  A
C5153      H5156   1.085       .  S
C5154      C5157   1.445       .  S
C5157      N5159   1.157       .  T
C5158      N5160   1.157       .  T
C5161      C5162   1.403       .  A
C5161      C5166   1.413       .  A
C5162      C5163   1.398       .  A
C5162      H5167   1.085       .  S
C5163      C5164   1.416       .  A
C5163      C5170   1.441       .  S
C5164      C5165   1.409       .  A
C5165      C5166   1.404       .  A
C5165      H5168   1.085       .  S
C5166      C5169   1.444       .  S
C5169      N5171   1.157       .  T
C5170      N5172   1.156       .  T
C5173      C5174   1.404       .  A
C5173      C5178   1.412       .  A
C5174      C5175   1.400       .  A
C5174      H5179   1.085       .  S
C5175      C5176   1.414       .  A
C5175      C5182   1.444       .  S
C5176      C5177   1.404       .  A
C5177      C5178   1.399       .  A
C5177      H5180   1.085       .  S
C5178      C5181   1.444       .  S
C5181      N5183   1.157       .  T
C5182      N5184   1.157       .  T
C5185      C5186   1.401       .  A
C5185      C5190   1.414       .  A
C5186      C5187   1.397       .  A
C5186      H5191   1.085       .  S
C5187      C5188   1.412       .  A
C5187      C5194   1.444       .  S
C5188      C5189   1.403       .  A
C5189      C5190   1.402       .  A
C5189      H5192   1.085       .  S
C5190      C5193   1.444       .  S
C5193      N5195   1.157       .  T
C5194      N5196   1.157       .  T
C5197      C5198   1.402       .  A
C5197      C5202   1.410       .  A
C5198      C5199   1.402       .  A
C5198      H5203   1.085       .  S
C5199      C5200   1.410       .  A
C5199      C5206   1.444       .  S
C5200      C5201   1.401       .  A
C5201      C5202   1.399       .  A
C5201      H5204   1.085       .  S
C5202      C5205   1.444       .  S
C5205      N5207   1.157       .  T
C5206      N5208   1.157       .  T
C5209      C5210   1.406       .  A
C5209      C5214   1.415       .  A
C5210      C5211   1.401       .  A
C5210      H5215   1.085       .  S
C5211      C5212   1.413       .  A
C5211      C5218   1.444       .  S
C5212      C5213   1.404       .  A
C5213      C5214   1.400       .  A
C5213      H5216   1.085       .  S
C5214      C5217   1.444       .  S
C5217      N5219   1.157       .  T
C5218      N5220   1.157       .  T
C5221      C5222   1.404       .  A
C5221      C5226   1.413       .  A
C5222      C5223   1.401       .  A
C5222      H5227   1.085       .  S
C5223      C5224   1.412       .  A
C5223      C5230   1.444       .  S
C5224      C5225   1.403       .  A
C5225      C5226   1.399       .  A
C5225      H5228   1.085       .  S
C5226      C5229   1.444       .  S
C5229      N5231   1.157       .  T
C5230      N5232   1.157       .  T
C5233      C5234   1.405       .  A
C5233      C5238   1.412       .  A
C5234      C5235   1.402       .  A
C5234      H5239   1.085       .  S
C5235      C5236   1.413       .  A
C5235      C5242   1.444       .  S
C5236      C5237   1.405       .  A
C5237      C5238   1.398       .  A
C5237      H5240   1.085       .  S
C5238      C5241   1.445       .  S
C5241      N5243   1.157       .  T
C5242      N5244   1.157       .  T
C5245      C5246   1.405       .  A
C5245      C5250   1.413       .  A
C5246      C5247   1.402       .  A
C5246      H5251   1.085       .  S
C5247      C5248   1.414       .  A
C5247      C5254   1.444       .  S
C5248      C5249   1.405       .  A
C5249      C5250   1.399       .  A
C5249      H5252   1.085       .  S
C5250      C5253   1.444       .  S
C5253      N5255   1.157       .  T
C5254      N5256   1.157       .  T
C5257      C5258   1.404       .  A
C5257      C5262   1.414       .  A
C5258      C5259   1.400       .  A
C5258      H5263   1.085       .  S
C5259      C5260   1.414       .  A
C5259      C5266   1.444       .  S
C5260      C5261   1.404       .  A
C5261      C5262   1.401       .  A
C5261      H5264   1.085       .  S
C5262      C5265   1.444       .  S
C5265      N5267   1.157       .  T
C5266      N5268   1.157       .  T
C5269      C5270   1.405       .  A
C5269      C5274   1.412       .  A
C5270      C5271   1.402       .  A
C5270      H5275   1.085       .  S
C5271      C5272   1.415       .  A
C5271      C5278   1.444       .  S
C5272      C5273   1.407       .  A
C5273      C5274   1.401       .  A
C5273      H5276   1.085       .  S
C5274      C5277   1.444       .  S
C5277      N5279   1.157       .  T
C5278      N5280   1.157       .  T
