geometry optimzed in LAMMPS
_audit_creation_date              2020-11-30 
_audit_creation_method            'lammps2cif' 
_symmetry_space_group_name_H-M    'P1' 
_symmetry_Int_Tables_number       1 
_symmetry_cell_setting            triclinic 
loop_ 
_symmetry_equiv_pos_as_xyz 
  x,y,z 
_cell_length_a                    44.73656487289868 
_cell_length_b                    44.438662106889396 
_cell_length_c                    24.188569072504844 
_cell_angle_alpha                 89.94786597436396 
_cell_angle_beta                  94.74994917769976 
_cell_angle_gamma                 89.98396296183635 
loop_ 
_atom_site_label 
_atom_site_type_symbol 
_atom_site_fract_x 
_atom_site_fract_y 
_atom_site_fract_z 
_atom_site_charge 
N1          N  0.11689717  0.27438205  0.24112384    -0.27030
N2          N  0.09100652  0.28728579  0.24903286    -0.34890
C3          C  0.07035655  0.26584132  0.25468034     0.01310
C4          C  0.08391250  0.23810029  0.24987179     0.07330
C5          C  0.11339205  0.24427371  0.24076313    -0.05760
H6          H  0.04715248  0.27013190  0.26159625     0.08000
H7          H  0.13112379  0.22816121  0.23597250     0.09200
Cu8        Cu  0.08531317  0.33350030  0.25194603     0.44170
Cu9        Cu  0.15555861  0.29925872  0.23632993     0.41990
Cu10       Cu  0.15052419  0.38185149  0.24509304     0.43880
N11         N  0.08342816  0.38009894  0.25128517    -0.34420
N12         N  0.10688017  0.39799407  0.24817030    -0.28670
C13         C  0.09741020  0.42683314  0.24755444    -0.04770
C14         C  0.06666787  0.42681936  0.25072080     0.07440
C15         C  0.05857193  0.39694222  0.25292772     0.01240
H16         H  0.11178783  0.44626608  0.24493810     0.08890
H17         H  0.03618138  0.38804364  0.25504052     0.07970
N18         N  0.19060458  0.35786938  0.24439911    -0.35870
N19         N  0.19184493  0.32816022  0.24137793    -0.28050
C20         C  0.22060837  0.31943268  0.24419412    -0.03290
C21         C  0.23853040  0.34470610  0.24901708     0.05320
C22         C  0.21884648  0.36878538  0.24886780     0.03420
H23         H  0.22786309  0.29622726  0.24335550     0.08520
H24         H  0.22458242  0.39237635  0.25281811     0.07360
N25         N  0.11687026  0.71597348  0.24321522    -0.27030
N26         N  0.09094627  0.70298778  0.25050916    -0.34890
C27         C  0.07022109  0.72435824  0.25621361     0.01310
C28         C  0.08377020  0.75214304  0.25209766     0.07330
C29         C  0.11331491  0.74607200  0.24329267    -0.05760
H30         H  0.04696623  0.71998591  0.26260175     0.08000
H31         H  0.13104044  0.76224225  0.23892019     0.09200
Cu32       Cu  0.08535536  0.65677282  0.25257135     0.44170
Cu33       Cu  0.15561381  0.69117507  0.23860585     0.41990
Cu34       Cu  0.15079998  0.60852518  0.24739074     0.43880
N35         N  0.08359928  0.61020006  0.25205797    -0.34420
N36         N  0.10713307  0.59231667  0.24978394    -0.28670
C37         C  0.09770093  0.56346922  0.24932752    -0.04770
C38         C  0.06689682  0.56348578  0.25167071     0.07440
C39         C  0.05873057  0.59335736  0.25322847     0.01240
H40         H  0.11213705  0.54403446  0.24729503     0.08890
H41         H  0.03628803  0.60225428  0.25464543     0.07970
N42         N  0.19082154  0.63262096  0.24684243    -0.35870
N43         N  0.19197988  0.66233710  0.24380487    -0.28050
C44         C  0.22072085  0.67112638  0.24662653    -0.03290
C45         C  0.23871607  0.64588978  0.25146053     0.05320
C46         C  0.21909629  0.62176646  0.25131833     0.03420
H47         H  0.22791099  0.69434781  0.24573623     0.08520
H48         H  0.22489837  0.59818282  0.25523082     0.07360
N49         N  0.39348739  0.71566845  0.26634013    -0.27030
N50         N  0.41903694  0.70287512  0.25577869    -0.34890
C51         C  0.43960791  0.72435988  0.25001965     0.01310
C52         C  0.42643010  0.75200902  0.25784710     0.07330
C53         C  0.39715478  0.74574700  0.26833363    -0.05760
H54         H  0.46244409  0.72019156  0.24042862     0.08000
H55         H  0.37957071  0.76179645  0.27462444     0.09200
Cu56       Cu  0.42440600  0.65679982  0.24903850     0.44170
Cu57       Cu  0.35487402  0.69080224  0.27138563     0.41990
Cu58       Cu  0.35952946  0.60836864  0.25784994     0.43880
N59         N  0.42635182  0.61024574  0.24818311    -0.34420
N60         N  0.40305116  0.59228093  0.25236914    -0.28670
C61         C  0.41260875  0.56347493  0.25250771    -0.04770
C62         C  0.44322944  0.56359243  0.24776878     0.07440
C63         C  0.45117753  0.59349603  0.24526973     0.01240
H64         H  0.39839488  0.54399487  0.25607313     0.08890
H65         H  0.47348368  0.60248083  0.24249328     0.07970
N66         N  0.31956565  0.63242245  0.26055799    -0.35870
N67         N  0.31848779  0.66206834  0.26531583    -0.28050
C68         C  0.28978082  0.67092853  0.26323782    -0.03290
C69         C  0.27171019  0.64581163  0.25708944     0.05320
C70         C  0.29125583  0.62167790  0.25568566     0.03420
H71         H  0.28266471  0.69413351  0.26539521     0.08520
H72         H  0.28537498  0.59818903  0.25033333     0.07360
O73         O  0.47183567  0.46319764  0.20193333    -0.72680
O74         O  0.03527832  0.52747345  0.20430835    -0.73670
O75         O  0.03518978  0.46321643  0.20384127    -0.62280
O76         O  0.47194103  0.52774489  0.20244433    -0.70700
O77         O  0.47490554  0.52735379  0.29460329    -0.70250
O78         O  0.03806941  0.46276755  0.29599607    -0.61500
O79         O  0.03829585  0.52731469  0.29647419    -0.74010
O80         O  0.47470235  0.46315611  0.29409260    -0.72790
Cu81       Cu  0.00343172  0.49541617  0.19990759     1.04560
Cu82       Cu  0.00663458  0.49514018  0.29851773     1.04330
C83         C  0.46369922  0.45277088  0.24758135     0.93510
C84         C  0.04632554  0.53782894  0.25080801     0.92650
C85         C  0.04612296  0.45251016  0.25018911     0.84800
C86         C  0.46389497  0.53799946  0.24826222     0.91070
N87         N  0.39347345  0.27518685  0.26551161    -0.27030
N88         N  0.41899560  0.28800818  0.25489018    -0.34890
C89         C  0.43968855  0.26656708  0.24976972     0.01310
C90         C  0.42662053  0.23891930  0.25810721     0.07330
C91         C  0.39727445  0.24513121  0.26816854    -0.05760
H92         H  0.46251996  0.27075755  0.24017640     0.08000
H93         H  0.37973201  0.22905283  0.27454550     0.09200
Cu94       Cu  0.42416849  0.33405621  0.24731281     0.44170
Cu95       Cu  0.35476065  0.29999239  0.26977246     0.41990
Cu96       Cu  0.35926015  0.38246856  0.25617859     0.43880
N97         N  0.42607474  0.38059842  0.24656299    -0.34420
N98         N  0.40278060  0.39856309  0.25088056    -0.28670
C99         C  0.41235930  0.42736030  0.25134434    -0.04770
C100        C  0.44298543  0.42722918  0.24667260     0.07440
C101        C  0.45091399  0.39733475  0.24387522     0.01240
H102        H  0.39816135  0.44683757  0.25512387     0.08890
H103        H  0.47322333  0.38834119  0.24112933     0.07970
N104        N  0.31934342  0.35833036  0.25855723    -0.35870
N105        N  0.31832841  0.32867625  0.26328794    -0.28050
C106        C  0.28964237  0.31976072  0.26100545    -0.03290
C107        C  0.27151853  0.34484799  0.25475654     0.05320
C108        C  0.29100868  0.36902450  0.25349984     0.03420
H109        H  0.28257994  0.29654009  0.26314493     0.08520
H110        H  0.28507690  0.39251007  0.24815670     0.07360
C111        C  0.00445825  0.13474625  0.24967253    -0.02230
C112        C  0.00453908  0.85588275  0.25026299    -0.02230
C113        C  0.00662455  0.06048607  0.45098789     0.03390
C114        C  0.00573121  0.07602176  0.00099082    -0.12760
C115        C  0.00492472  0.06018790  0.05071538     0.00890
C116        C  0.00440428  0.02875417  0.05031533    -0.11290
C117        C  0.00604247  0.01227641  0.00058644     0.03380
C118        C  0.00725063  0.02896890  0.45088370    -0.10710
H119        H  0.00555554  0.10042188  0.00118113     0.08980
H120        H  0.00208732  0.01797677  0.08958756     0.06500
H121        H  0.00916076  0.01824974  0.41141878     0.06350
C122        C  0.00828253  0.93042919  0.05173299     0.03390
C123        C  0.00660712  0.91456486  0.00181203    -0.12760
C124        C  0.00504906  0.92998227  0.45134579     0.00890
C125        C  0.00390936  0.96148747  0.45080889    -0.11290
C126        C  0.00643389  0.97825509  0.00079363     0.03380
C127        C  0.00925569  0.96185745  0.05121306    -0.10710
H128        H  0.00639737  0.89016295  0.00223339     0.08980
H129        H  0.00141247  0.97216717  0.41071394     0.06500
H130        H  0.01164442  0.97273143  0.09104600     0.06350
C131        C  0.00561236  0.91294405  0.39910405    -0.05210
C132        C  0.48136211  0.91424279  0.35883321    -0.32640
C133        C  0.48100255  0.89656733  0.31072114     0.36610
C134        C  0.00526861  0.87683875  0.30215516    -0.05560
C135        C  0.03076530  0.87840100  0.34086981    -0.32530
C136        C  0.03070768  0.89550922  0.38917326     0.36520
H137        H  0.46230457  0.92849836  0.36527055     0.16890
O138        O  0.45679040  0.89871688  0.27223138    -0.60030
H139        H  0.05124385  0.86652710  0.33441448     0.16910
O140        O  0.05551203  0.89514583  0.42653810    -0.60130
H141        H  0.06784537  0.91248887  0.41621320     0.43900
H142        H  0.43944368  0.89063281  0.29051739     0.43860
C143        C  0.00322521  0.87770249  0.19990344    -0.05210
C144        C  0.02768993  0.89741442  0.19475276    -0.32640
C145        C  0.02968655  0.91499006  0.14706999     0.36610
C146        C  0.00650463  0.91404644  0.10436708    -0.05560
C147        C  0.48042437  0.89796339  0.11229920    -0.32530
C148        C  0.47807922  0.88064950  0.16003272     0.36520
H149        H  0.04637024  0.89751571  0.22626763     0.16890
O150        O  0.05509364  0.93154269  0.14112143    -0.60030
H151        H  0.46145557  0.89921895  0.08143236     0.16910
O152        O  0.45042551  0.86908157  0.16919643    -0.60130
H153        H  0.44370999  0.85705024  0.13593483     0.43900
H154        H  0.05242566  0.95035170  0.16218958     0.43860
C155        C  0.00707872  0.07738430  0.39857065    -0.05210
C156        C  0.48232475  0.07642293  0.35933892    -0.32640
C157        C  0.48143705  0.09420886  0.31125674     0.36610
C158        C  0.00568794  0.11371165  0.30163426    -0.05560
C159        C  0.03167034  0.11178448  0.33927543    -0.32530
C160        C  0.03211126  0.09459229  0.38766369     0.36520
H161        H  0.46326387  0.06234917  0.36663815     0.16890
O162        O  0.45674335  0.09235574  0.27380795    -0.60030
H163        H  0.05212727  0.12347200  0.33194458     0.16910
O164        O  0.05724873  0.09475611  0.42421467    -0.60130
H165        H  0.06941117  0.07742091  0.41327595     0.43900
H166        H  0.43971938  0.10040395  0.29305898     0.43860
C167        C  0.00222235  0.11306461  0.19907669    -0.05210
C168        C  0.02628610  0.09305409  0.19276996    -0.32640
C169        C  0.02731949  0.07539387  0.14504917     0.36610
C170        C  0.00361990  0.07661441  0.10332408    -0.05560
C171        C  0.47796418  0.09309965  0.11226455    -0.32530
C172        C  0.47651382  0.11041646  0.16026086     0.36520
H173        H  0.04534532  0.09266440  0.22347550     0.16890
O174        O  0.05229198  0.05834116  0.13812965    -0.60030
H175        H  0.45865735  0.09212873  0.08211912     0.16910
O176        O  0.44917121  0.12226436  0.17076495    -0.60130
H177        H  0.44218791  0.13448703  0.13785337     0.43900
H178        H  0.04870452  0.03891181  0.15665825     0.43860
C179        C  0.44102592  0.20943069  0.25244364    -0.05210
C180        C  0.45725277  0.20454289  0.20650491    -0.32640
C181        C  0.47506950  0.17900249  0.20292307     0.36610
C182        C  0.47804503  0.15776865  0.24726135    -0.05560
C183        C  0.46027615  0.16241346  0.29238079    -0.32530
C184        C  0.44143782  0.18756227  0.29437747     0.36520
H185        H  0.45690267  0.22121087  0.17370419     0.16890
O186        O  0.49182475  0.17637252  0.15808927    -0.60030
H187        H  0.46229515  0.14809163  0.32852254     0.16910
O188        O  0.42590019  0.19205257  0.34021573    -0.60130
H189        H  0.40679461  0.18094647  0.33242291     0.43900
H190        H  0.47726427  0.17453062  0.12505521     0.43860
C191        C  0.44076308  0.78152432  0.25196925    -0.05210
C192        C  0.45722052  0.78635599  0.20627590    -0.32640
C193        C  0.47508051  0.81188906  0.20279890     0.36610
C194        C  0.47787428  0.83313639  0.24703473    -0.05560
C195        C  0.45977720  0.82859025  0.29175655    -0.32530
C196        C  0.44091862  0.80347436  0.29363143     0.36520
H197        H  0.45706062  0.76962602  0.17366454     0.16890
O198        O  0.49214621  0.81441513  0.15836802    -0.60030
H199        H  0.46159165  0.84291022  0.32785167     0.16910
O200        O  0.42516680  0.79906035  0.33923976    -0.60130
H201        H  0.40613717  0.81027845  0.33117888     0.43900
H202        H  0.47779111  0.81606607  0.12499600     0.43860
C203        C  0.06917865  0.78166796  0.25625626    -0.05210
C204        C  0.06996828  0.80252901  0.21316053    -0.32640
C205        C  0.05145262  0.82813098  0.21073133     0.36610
C206        C  0.03209705  0.83382775  0.25378870    -0.05560
C207        C  0.03420195  0.81367433  0.29950243    -0.32530
C208        C  0.05176257  0.78777626  0.30031233     0.36520
H209        H  0.08318841  0.79769824  0.17864535     0.16890
O210        O  0.04997620  0.84451616  0.16261479    -0.60030
H211        H  0.02007497  0.81682107  0.33331058     0.16990
O212        O  0.05128948  0.76815749  0.34407761    -0.60130
H213        H  0.03195652  0.75723992  0.33801178     0.43900
H214        H  0.06964037  0.85483352  0.16248148     0.43860
C215        C  0.06942770  0.20853677  0.25427252    -0.05210
C216        C  0.06981141  0.18775718  0.21099041    -0.32640
C217        C  0.05123523  0.16219376  0.20899676     0.36610
C218        C  0.03217384  0.15655771  0.25250881    -0.05560
C219        C  0.03478608  0.17654755  0.29839128    -0.32530
C220        C  0.05244328  0.20234321  0.29889757     0.36520
H221        H  0.08275803  0.19261373  0.17610460     0.16890
O222        O  0.04943821  0.14575239  0.16099763    -0.60030
H223        H  0.02095513  0.17337599  0.33263601     0.16910
O224        O  0.05245893  0.22180597  0.34292058    -0.60130
H225        H  0.03311369  0.23277655  0.33764724     0.43900
H226        H  0.06898580  0.13521441  0.16075311     0.43860
N227        N  0.11689717  0.27438206  0.74112385    -0.27030
N228        N  0.09100654  0.28728580  0.74903289    -0.34890
C229        C  0.07035656  0.26584133  0.75468038     0.01310
C230        C  0.08391251  0.23810030  0.74987182     0.07330
C231        C  0.11339206  0.24427372  0.74076313    -0.05760
H232        H  0.04715249  0.27013190  0.76159631     0.08000
H233        H  0.13112380  0.22816121  0.73597248     0.09200
Cu234      Cu  0.08531318  0.33350030  0.75194608     0.44170
Cu235      Cu  0.15555861  0.29925873  0.73632991     0.41990
Cu236      Cu  0.15052420  0.38185150  0.74509302     0.43880
N237        N  0.08342817  0.38009894  0.75128521    -0.34420
N238        N  0.10688018  0.39799408  0.74817031    -0.28670
C239        C  0.09741020  0.42683314  0.74755444    -0.04770
C240        C  0.06666788  0.42681936  0.75072083     0.07440
C241        C  0.05857194  0.39694223  0.75292778     0.01240
H242        H  0.11178784  0.44626609  0.74493808     0.08890
H243        H  0.03618140  0.38804364  0.75504060     0.07970
N244        N  0.19060459  0.35786939  0.74439909    -0.35870
N245        N  0.19184494  0.32816022  0.74137791    -0.28050
C246        C  0.22060838  0.31943269  0.74419410    -0.03290
C247        C  0.23853041  0.34470610  0.74901707     0.05320
C248        C  0.21884649  0.36878538  0.74886778     0.03420
H249        H  0.22786310  0.29622726  0.74335549     0.08520
H250        H  0.22458243  0.39237635  0.75281810     0.07360
N251        N  0.11687026  0.71597348  0.74321525    -0.27030
N252        N  0.09094627  0.70298778  0.75050920    -0.34890
C253        C  0.07022109  0.72435824  0.75621366     0.01310
C254        C  0.08377020  0.75214304  0.75209769     0.07330
C255        C  0.11331490  0.74607200  0.74329269    -0.05760
H256        H  0.04696623  0.71998592  0.76260180     0.08000
H257        H  0.13104043  0.76224225  0.73892020     0.09200
Cu258      Cu  0.08535536  0.65677282  0.75257141     0.44170
Cu259      Cu  0.15561381  0.69117507  0.73860587     0.41990
Cu260      Cu  0.15079998  0.60852518  0.74739077     0.43880
N261        N  0.08359928  0.61020006  0.75205804    -0.34420
N262        N  0.10713307  0.59231667  0.74978398    -0.28670
C263        C  0.09770093  0.56346922  0.74932756    -0.04770
C264        C  0.06689682  0.56348578  0.75167077     0.07440
C265        C  0.05873057  0.59335737  0.75322854     0.01240
H266        H  0.11213705  0.54403447  0.74729505     0.08890
H267        H  0.03628803  0.60225429  0.75464551     0.07970
N268        N  0.19082154  0.63262097  0.74684245    -0.35870
N269        N  0.19197988  0.66233710  0.74380490    -0.28050
C270        C  0.22072085  0.67112638  0.74662655    -0.03290
C271        C  0.23871606  0.64588978  0.75146056     0.05320
C272        C  0.21909628  0.62176646  0.75131835     0.03420
H273        H  0.22791099  0.69434781  0.74573625     0.08520
H274        H  0.22489836  0.59818282  0.75523084     0.07360
N275        N  0.39348739  0.71566844  0.76634015    -0.27030
N276        N  0.41903694  0.70287511  0.75577869    -0.34890
C277        C  0.43960791  0.72435987  0.75001965     0.01310
C278        C  0.42643010  0.75200901  0.75784711     0.07330
C279        C  0.39715478  0.74574699  0.76833366    -0.05760
H280        H  0.46244408  0.72019155  0.74042860     0.08000
H281        H  0.37957071  0.76179644  0.77462448     0.09200
Cu282      Cu  0.42440599  0.65679981  0.74903848     0.44170
Cu283      Cu  0.35487402  0.69080223  0.77138566     0.41990
Cu284      Cu  0.35952945  0.60836863  0.75784996     0.43880
N285        N  0.42635181  0.61024573  0.74818310    -0.34420
N286        N  0.40305115  0.59228092  0.75236915    -0.28670
C287        C  0.41260875  0.56347492  0.75250772    -0.04770
C288        C  0.44322943  0.56359242  0.74776877     0.07440
C289        C  0.45117752  0.59349602  0.74526970     0.01240
H290        H  0.39839488  0.54399486  0.75607316     0.08890
H291        H  0.47348367  0.60248082  0.74249324     0.07970
N292        N  0.31956565  0.63242244  0.76055802    -0.35870
N293        N  0.31848778  0.66206833  0.76531586    -0.28050
C294        C  0.28978081  0.67092852  0.76323785    -0.03290
C295        C  0.27171018  0.64581163  0.75708947     0.05320
C296        C  0.29125583  0.62167789  0.75568568     0.03420
H297        H  0.28266471  0.69413351  0.76539524     0.08520
H298        H  0.28537497  0.59818903  0.75033335     0.07360
O299        O  0.47183569  0.46319764  0.70193332    -0.72680
O300        O  0.03527833  0.52747346  0.70430838    -0.73670
O301        O  0.03518980  0.46321643  0.70384130    -0.62280
O302        O  0.47194104  0.52774489  0.70244433    -0.70700
O303        O  0.47490553  0.52735379  0.79460329    -0.70250
O304        O  0.03806941  0.46276755  0.79599609    -0.61500
O305        O  0.03829584  0.52731469  0.79647423    -0.74010
O306        O  0.47470234  0.46315610  0.79409259    -0.72790
Cu307      Cu  0.00343173  0.49541617  0.69990760     1.04560
Cu308      Cu  0.00663457  0.49514018  0.79851774     1.04330
C309        C  0.46369922  0.45277087  0.74758133     0.93510
C310        C  0.04632554  0.53782894  0.75080806     0.92650
C311        C  0.04612296  0.45251016  0.75018914     0.84800
C312        C  0.46389496  0.53799945  0.74826221     0.91070
N313        N  0.39347346  0.27518684  0.76551159    -0.27030
N314        N  0.41899561  0.28800818  0.75489014    -0.34890
C315        C  0.43968856  0.26656708  0.74976968     0.01310
C316        C  0.42662054  0.23891930  0.75810719     0.07330
C317        C  0.39727446  0.24513120  0.76816853    -0.05760
H318        H  0.46251996  0.27075755  0.74017635     0.08000
H319        H  0.37973203  0.22905283  0.77454551     0.09200
Cu320      Cu  0.42416850  0.33405621  0.74731276     0.44170
Cu321      Cu  0.35476065  0.29999239  0.76977245     0.41990
Cu322      Cu  0.35926016  0.38246855  0.75617859     0.43880
N323        N  0.42607474  0.38059841  0.74656295    -0.34420
N324        N  0.40278061  0.39856308  0.75088054    -0.28670
C325        C  0.41235931  0.42736029  0.75134432    -0.04770
C326        C  0.44298543  0.42722917  0.74667257     0.07440
C327        C  0.45091399  0.39733474  0.74387516     0.01240
H328        H  0.39816136  0.44683756  0.75512389     0.08890
H329        H  0.47322333  0.38834118  0.74112926     0.07970
N330        N  0.31934343  0.35833036  0.75855723    -0.35870
N331        N  0.31832842  0.32867625  0.76328793    -0.28050
C332        C  0.28964238  0.31976072  0.76100545    -0.03290
C333        C  0.27151854  0.34484799  0.75475653     0.05320
C334        C  0.29100869  0.36902450  0.75349984     0.03420
H335        H  0.28257995  0.29654008  0.76314492     0.08520
H336        H  0.28507691  0.39251007  0.74815669     0.07360
C337        C  0.00445827  0.13474625  0.74967253    -0.02230
C338        C  0.00453906  0.85588275  0.75026299    -0.02230
C339        C  0.00662456  0.06048607  0.95098789     0.03390
C340        C  0.00573122  0.07602176  0.50099082    -0.12760
C341        C  0.00492475  0.06018790  0.55071539     0.00890
C342        C  0.00440431  0.02875418  0.55031534    -0.11290
C343        C  0.00604248  0.01227641  0.50058645     0.03380
C344        C  0.00725064  0.02896890  0.95088371    -0.10710
H345        H  0.00555555  0.10042188  0.50118113     0.08980
H346        H  0.00208738  0.01797678  0.58958759     0.06500
H347        H  0.00916080  0.01824974  0.91141879     0.06350
C348        C  0.00828251  0.93042918  0.55173299     0.03390
C349        C  0.00660712  0.91456486  0.50181203    -0.12760
C350        C  0.00504904  0.92998227  0.95134578     0.00890
C351        C  0.00390933  0.96148747  0.95080889    -0.11290
C352        C  0.00643389  0.97825509  0.50079363     0.03380
C353        C  0.00925566  0.96185744  0.55121307    -0.10710
H354        H  0.00639737  0.89016295  0.50223339     0.08980
H355        H  0.00141242  0.97216718  0.91071394     0.06500
H356        H  0.01164436  0.97273142  0.59104600     0.06350
C357        C  0.00561235  0.91294406  0.89910405    -0.05210
C358        C  0.48136209  0.91424278  0.85883321    -0.32640
C359        C  0.48100253  0.89656732  0.81072114     0.36610
C360        C  0.00526859  0.87683875  0.80215516    -0.05560
C361        C  0.03076529  0.87840101  0.84086981    -0.32530
C362        C  0.03070766  0.89550923  0.88917326     0.36520
H363        H  0.46230454  0.92849835  0.86527055     0.16890
O364        O  0.45679038  0.89871686  0.77223138    -0.60030
H365        H  0.05124384  0.86652711  0.83441447     0.16910
O366        O  0.05551202  0.89514585  0.92653808    -0.60130
H367        H  0.06784535  0.91248889  0.91621318     0.43900
H368        H  0.43944366  0.89063279  0.79051740     0.43860
C369        C  0.00322520  0.87770248  0.69990344    -0.05210
C370        C  0.02768991  0.89741442  0.69475276    -0.32640
C371        C  0.02968653  0.91499006  0.64706999     0.36610
C372        C  0.00650461  0.91404643  0.60436707    -0.05560
C373        C  0.48042435  0.89796338  0.61229919    -0.32530
C374        C  0.47807920  0.88064949  0.66003272     0.36520
H375        H  0.04637022  0.89751571  0.72626763     0.16890
O376        O  0.05509361  0.93154269  0.64112143    -0.60030
H377        H  0.46145555  0.89921894  0.58143235     0.16910
O378        O  0.45042550  0.86908156  0.66919643    -0.60130
H379        H  0.44370997  0.85705023  0.63593483     0.43900
H380        H  0.05242563  0.95035170  0.66218958     0.43860
C381        C  0.00707874  0.07738430  0.89857066    -0.05210
C382        C  0.48232477  0.07642293  0.85933892    -0.32640
C383        C  0.48143707  0.09420886  0.81125674     0.36610
C384        C  0.00568796  0.11371165  0.80163426    -0.05560
C385        C  0.03167035  0.11178448  0.83927544    -0.32530
C386        C  0.03211128  0.09459229  0.88766370     0.36520
H387        H  0.46326389  0.06234917  0.86663815     0.16890
O388        O  0.45674337  0.09235574  0.77380795    -0.60030
H389        H  0.05212728  0.12347200  0.83194459     0.16910
O390        O  0.05724875  0.09475611  0.92421468    -0.60130
H391        H  0.06941119  0.07742092  0.91327596     0.43900
H392        H  0.43971939  0.10040394  0.79305897     0.43860
C393        C  0.00222237  0.11306461  0.69907669    -0.05210
C394        C  0.02628613  0.09305409  0.69276997    -0.32640
C395        C  0.02731952  0.07539387  0.64504917     0.36610
C396        C  0.00361993  0.07661442  0.60332408    -0.05560
C397        C  0.47796420  0.09309964  0.61226456    -0.32530
C398        C  0.47651385  0.11041646  0.66026086     0.36520
H399        H  0.04534534  0.09266441  0.72347550     0.16890
O400        O  0.05229201  0.05834118  0.63812965    -0.60030
H401        H  0.45865738  0.09212873  0.58211913     0.16910
O402        O  0.44917123  0.12226435  0.67076495    -0.60130
H403        H  0.44218793  0.13448702  0.63785337     0.43900
H404        H  0.04870456  0.03891182  0.65665826     0.43860
C405        C  0.44102593  0.20943068  0.75244363    -0.05210
C406        C  0.45725278  0.20454288  0.70650490    -0.32640
C407        C  0.47506951  0.17900249  0.70292306     0.36610
C408        C  0.47804505  0.15776865  0.74726135    -0.05560
C409        C  0.46027616  0.16241346  0.79238079    -0.32530
C410        C  0.44143783  0.18756227  0.79437746     0.36520
H411        H  0.45690268  0.22121086  0.67370417     0.16890
O412        O  0.49182477  0.17637252  0.65808927    -0.60030
H413        H  0.46229517  0.14809163  0.82852254     0.16910
O414        O  0.42590020  0.19205256  0.84021571    -0.60130
H415        H  0.40679462  0.18094646  0.83242290     0.43900
H416        H  0.47726429  0.17453061  0.62505520     0.43860
C417        C  0.44076308  0.78152431  0.75196927    -0.05210
C418        C  0.45722051  0.78635598  0.70627592    -0.32640
C419        C  0.47508051  0.81188906  0.70279891     0.36610
C420        C  0.47787427  0.83313639  0.74703474    -0.05560
C421        C  0.45977719  0.82859024  0.79175656    -0.32530
C422        C  0.44091861  0.80347435  0.79363144     0.36520
H423        H  0.45706062  0.76962601  0.67366455     0.16890
O424        O  0.49214621  0.81441512  0.65836803    -0.60030
H425        H  0.46159164  0.84291022  0.82785168     0.16910
O426        O  0.42516680  0.79906034  0.83923977    -0.60130
H427        H  0.40613717  0.81027844  0.83117890     0.43900
H428        H  0.47779110  0.81606606  0.62499601     0.43860
C429        C  0.06917864  0.78166796  0.75625628    -0.05210
C430        C  0.06996827  0.80252901  0.71316055    -0.32640
C431        C  0.05145261  0.82813098  0.71073134     0.36610
C432        C  0.03209704  0.83382775  0.75378871    -0.05560
C433        C  0.03420194  0.81367434  0.79950245    -0.32530
C434        C  0.05176257  0.78777627  0.80031235     0.36520
H435        H  0.08318840  0.79769824  0.67864537     0.16890
O436        O  0.04997619  0.84451616  0.66261480    -0.60030
H437        H  0.02007496  0.81682107  0.83331060     0.16990
O438        O  0.05128948  0.76815750  0.84407764    -0.60130
H439        H  0.03195652  0.75723993  0.83801182     0.43900
H440        H  0.06964035  0.85483352  0.66248149     0.43860
C441        C  0.06942771  0.20853678  0.75427254    -0.05210
C442        C  0.06981143  0.18775719  0.71099043    -0.32640
C443        C  0.05123524  0.16219377  0.70899678     0.36610
C444        C  0.03217385  0.15655771  0.75250882    -0.05560
C445        C  0.03478609  0.17654755  0.79839129    -0.32530
C446        C  0.05244329  0.20234322  0.79889758     0.36520
H447        H  0.08275805  0.19261374  0.67610461     0.16890
O448        O  0.04943823  0.14575240  0.66099764    -0.60030
H449        H  0.02095514  0.17337599  0.83263602     0.16910
O450        O  0.05245894  0.22180597  0.84292060    -0.60130
H451        H  0.03311369  0.23277655  0.83764727     0.43900
H452        H  0.06898582  0.13521442  0.66075312     0.43860
N453        N  0.61689717  0.27438205  0.24112384    -0.27030
N454        N  0.59100652  0.28728579  0.24903285    -0.34890
C455        C  0.57035655  0.26584132  0.25468033     0.01310
C456        C  0.58391250  0.23810029  0.24987179     0.07330
C457        C  0.61339205  0.24427371  0.24076313    -0.05760
H458        H  0.54715248  0.27013190  0.26159624     0.08000
H459        H  0.63112380  0.22816120  0.23597250     0.09200
Cu460      Cu  0.58531317  0.33350030  0.25194602     0.44170
Cu461      Cu  0.65555861  0.29925872  0.23632993     0.41990
Cu462      Cu  0.65052419  0.38185149  0.24509304     0.43880
N463        N  0.58342816  0.38009894  0.25128517    -0.34420
N464        N  0.60688017  0.39799407  0.24817030    -0.28670
C465        C  0.59741020  0.42683314  0.24755444    -0.04770
C466        C  0.56666787  0.42681936  0.25072079     0.07440
C467        C  0.55857193  0.39694222  0.25292771     0.01240
H468        H  0.61178784  0.44626608  0.24493811     0.08890
H469        H  0.53618138  0.38804364  0.25504051     0.07970
N470        N  0.69060458  0.35786938  0.24439911    -0.35870
N471        N  0.69184493  0.32816022  0.24137793    -0.28050
C472        C  0.72060837  0.31943268  0.24419412    -0.03290
C473        C  0.73853040  0.34470610  0.24901708     0.05320
C474        C  0.71884649  0.36878538  0.24886780     0.03420
H475        H  0.72786309  0.29622726  0.24335550     0.08520
H476        H  0.72458242  0.39237635  0.25281811     0.07360
N477        N  0.61687026  0.71597348  0.24321522    -0.27030
N478        N  0.59094627  0.70298778  0.25050915    -0.34890
C479        C  0.57022109  0.72435824  0.25621361     0.01310
C480        C  0.58377020  0.75214304  0.25209766     0.07330
C481        C  0.61331491  0.74607200  0.24329266    -0.05760
H482        H  0.54696623  0.71998591  0.26260174     0.08000
H483        H  0.63104044  0.76224225  0.23892019     0.09200
Cu484      Cu  0.58535536  0.65677282  0.25257134     0.44170
Cu485      Cu  0.65561381  0.69117507  0.23860585     0.41990
Cu486      Cu  0.65079998  0.60852518  0.24739074     0.43880
N487        N  0.58359928  0.61020006  0.25205797    -0.34420
N488        N  0.60713307  0.59231667  0.24978394    -0.28670
C489        C  0.59770093  0.56346922  0.24932752    -0.04770
C490        C  0.56689682  0.56348578  0.25167071     0.07440
C491        C  0.55873057  0.59335736  0.25322846     0.01240
H492        H  0.61213705  0.54403446  0.24729503     0.08890
H493        H  0.53628803  0.60225428  0.25464543     0.07970
N494        N  0.69082154  0.63262097  0.24684243    -0.35870
N495        N  0.69197988  0.66233710  0.24380487    -0.28050
C496        C  0.72072085  0.67112638  0.24662653    -0.03290
C497        C  0.73871607  0.64588978  0.25146053     0.05320
C498        C  0.71909629  0.62176647  0.25131833     0.03420
H499        H  0.72791098  0.69434781  0.24573623     0.08520
H500        H  0.72489837  0.59818282  0.25523082     0.07360
N501        N  0.89348739  0.71566845  0.26634013    -0.27030
N502        N  0.91903694  0.70287512  0.25577868    -0.34890
C503        C  0.93960791  0.72435988  0.25001965     0.01310
C504        C  0.92643010  0.75200902  0.25784710     0.07330
C505        C  0.89715478  0.74574700  0.26833363    -0.05760
H506        H  0.96244409  0.72019156  0.24042862     0.08000
H507        H  0.87957071  0.76179645  0.27462444     0.09200
Cu508      Cu  0.92440600  0.65679982  0.24903850     0.44170
Cu509      Cu  0.85487402  0.69080224  0.27138563     0.41990
Cu510      Cu  0.85952946  0.60836864  0.25784994     0.43880
N511        N  0.92635182  0.61024575  0.24818311    -0.34420
N512        N  0.90305115  0.59228093  0.25236914    -0.28670
C513        C  0.91260875  0.56347493  0.25250771    -0.04770
C514        C  0.94322944  0.56359243  0.24776877     0.07440
C515        C  0.95117753  0.59349603  0.24526972     0.01240
H516        H  0.89839488  0.54399487  0.25607313     0.08890
H517        H  0.97348368  0.60248083  0.24249327     0.07970
N518        N  0.81956565  0.63242245  0.26055799    -0.35870
N519        N  0.81848779  0.66206834  0.26531583    -0.28050
C520        C  0.78978082  0.67092853  0.26323782    -0.03290
C521        C  0.77171019  0.64581163  0.25708944     0.05320
C522        C  0.79125583  0.62167790  0.25568566     0.03420
H523        H  0.78266471  0.69413351  0.26539521     0.08520
H524        H  0.78537498  0.59818903  0.25033333     0.07360
O525        O  0.97183567  0.46319764  0.20193332    -0.72680
O526        O  0.53527832  0.52747345  0.20430834    -0.73670
O527        O  0.53518978  0.46321643  0.20384127    -0.62280
O528        O  0.97194103  0.52774489  0.20244433    -0.70700
O529        O  0.97490554  0.52735380  0.29460329    -0.70250
O530        O  0.53806941  0.46276755  0.29599607    -0.61500
O531        O  0.53829585  0.52731469  0.29647419    -0.74010
O532        O  0.97470235  0.46315611  0.29409260    -0.72790
Cu533      Cu  0.50343172  0.49541617  0.19990759     1.04560
Cu534      Cu  0.50663458  0.49514018  0.29851773     1.04330
C535        C  0.96369922  0.45277088  0.24758135     0.93510
C536        C  0.54632554  0.53782894  0.25080801     0.92650
C537        C  0.54612296  0.45251016  0.25018911     0.84800
C538        C  0.96389496  0.53799946  0.24826221     0.91070
N539        N  0.89347345  0.27518685  0.26551161    -0.27030
N540        N  0.91899560  0.28800818  0.25489018    -0.34890
C541        C  0.93968855  0.26656708  0.24976971     0.01310
C542        C  0.92662053  0.23891930  0.25810721     0.07330
C543        C  0.89727445  0.24513121  0.26816854    -0.05760
H544        H  0.96251996  0.27075755  0.24017640     0.08000
H545        H  0.87973202  0.22905283  0.27454550     0.09200
Cu546      Cu  0.92416849  0.33405621  0.24731280     0.44170
Cu547      Cu  0.85476065  0.29999239  0.26977246     0.41990
Cu548      Cu  0.85926015  0.38246856  0.25617859     0.43880
N549        N  0.92607474  0.38059842  0.24656299    -0.34420
N550        N  0.90278060  0.39856309  0.25088056    -0.28670
C551        C  0.91235930  0.42736030  0.25134434    -0.04770
C552        C  0.94298543  0.42722918  0.24667260     0.07440
C553        C  0.95091399  0.39733475  0.24387521     0.01240
H554        H  0.89816135  0.44683757  0.25512388     0.08890
H555        H  0.97322333  0.38834119  0.24112932     0.07970
N556        N  0.81934342  0.35833036  0.25855723    -0.35870
N557        N  0.81832841  0.32867625  0.26328794    -0.28050
C558        C  0.78964237  0.31976072  0.26100546    -0.03290
C559        C  0.77151853  0.34484799  0.25475654     0.05320
C560        C  0.79100868  0.36902450  0.25349984     0.03420
H561        H  0.78257994  0.29654009  0.26314493     0.08520
H562        H  0.78507690  0.39251007  0.24815670     0.07360
C563        C  0.50445825  0.13474625  0.24967253    -0.02230
C564        C  0.50453908  0.85588275  0.25026298    -0.02230
C565        C  0.50662455  0.06048607  0.45098788     0.03390
C566        C  0.50573121  0.07602176  0.00099082    -0.12760
C567        C  0.50492472  0.06018790  0.05071538     0.00890
C568        C  0.50440428  0.02875417  0.05031533    -0.11290
C569        C  0.50604247  0.01227641  0.00058644     0.03380
C570        C  0.50725063  0.02896890  0.45088370    -0.10710
H571        H  0.50555554  0.10042188  0.00118113     0.08980
H572        H  0.50208732  0.01797677  0.08958756     0.06500
H573        H  0.50916076  0.01824974  0.41141878     0.06350
C574        C  0.50828253  0.93042919  0.05173298     0.03390
C575        C  0.50660712  0.91456486  0.00181203    -0.12760
C576        C  0.50504906  0.92998227  0.45134579     0.00890
C577        C  0.50390936  0.96148747  0.45080889    -0.11290
C578        C  0.50643389  0.97825509  0.00079363     0.03380
C579        C  0.50925569  0.96185745  0.05121306    -0.10710
H580        H  0.50639737  0.89016295  0.00223339     0.08980
H581        H  0.50141247  0.97216717  0.41071394     0.06500
H582        H  0.51164442  0.97273143  0.09104600     0.06350
C583        C  0.50561236  0.91294405  0.39910405    -0.05210
C584        C  0.98136211  0.91424279  0.35883321    -0.32640
C585        C  0.98100255  0.89656733  0.31072114     0.36610
C586        C  0.50526861  0.87683875  0.30215516    -0.05560
C587        C  0.53076530  0.87840100  0.34086981    -0.32530
C588        C  0.53070768  0.89550922  0.38917326     0.36520
H589        H  0.96230457  0.92849836  0.36527055     0.16890
O590        O  0.95679040  0.89871688  0.27223138    -0.60030
H591        H  0.55124385  0.86652710  0.33441448     0.16910
O592        O  0.55551203  0.89514583  0.42653809    -0.60130
H593        H  0.56784536  0.91248887  0.41621320     0.43900
H594        H  0.93944368  0.89063280  0.29051739     0.43860
C595        C  0.50322521  0.87770249  0.19990344    -0.05210
C596        C  0.52768992  0.89741442  0.19475276    -0.32640
C597        C  0.52968655  0.91499006  0.14706999     0.36610
C598        C  0.50650463  0.91404644  0.10436707    -0.05560
C599        C  0.98042437  0.89796339  0.11229920    -0.32530
C600        C  0.97807922  0.88064950  0.16003272     0.36520
H601        H  0.54637024  0.89751571  0.22626763     0.16890
O602        O  0.55509364  0.93154269  0.14112143    -0.60030
H603        H  0.96145557  0.89921895  0.08143236     0.16910
O604        O  0.95042552  0.86908157  0.16919644    -0.60130
H605        H  0.94370999  0.85705024  0.13593483     0.43900
H606        H  0.55242566  0.95035170  0.16218958     0.43860
C607        C  0.50707872  0.07738430  0.39857065    -0.05210
C608        C  0.98232475  0.07642293  0.35933892    -0.32640
C609        C  0.98143705  0.09420886  0.31125674     0.36610
C610        C  0.50568794  0.11371165  0.30163426    -0.05560
C611        C  0.53167034  0.11178448  0.33927543    -0.32530
C612        C  0.53211126  0.09459229  0.38766369     0.36520
H613        H  0.96326387  0.06234917  0.36663815     0.16890
O614        O  0.95674335  0.09235574  0.27380795    -0.60030
H615        H  0.55212727  0.12347200  0.33194458     0.16910
O616        O  0.55724873  0.09475611  0.42421467    -0.60130
H617        H  0.56941117  0.07742091  0.41327595     0.43900
H618        H  0.93971938  0.10040395  0.29305898     0.43860
C619        C  0.50222234  0.11306461  0.19907668    -0.05210
C620        C  0.52628610  0.09305409  0.19276996    -0.32640
C621        C  0.52731949  0.07539387  0.14504917     0.36610
C622        C  0.50361990  0.07661441  0.10332408    -0.05560
C623        C  0.97796418  0.09309965  0.11226456    -0.32530
C624        C  0.97651382  0.11041646  0.16026086     0.36520
H625        H  0.54534532  0.09266440  0.22347550     0.16890
O626        O  0.55229198  0.05834116  0.13812965    -0.60030
H627        H  0.95865735  0.09212873  0.08211913     0.16910
O628        O  0.94917121  0.12226436  0.17076495    -0.60130
H629        H  0.94218791  0.13448703  0.13785337     0.43900
H630        H  0.54870452  0.03891181  0.15665825     0.43860
C631        C  0.94102592  0.20943069  0.25244364    -0.05210
C632        C  0.95725277  0.20454289  0.20650491    -0.32640
C633        C  0.97506950  0.17900249  0.20292307     0.36610
C634        C  0.97804503  0.15776865  0.24726135    -0.05560
C635        C  0.96027615  0.16241346  0.29238079    -0.32530
C636        C  0.94143782  0.18756227  0.29437747     0.36520
H637        H  0.95690267  0.22121087  0.17370419     0.16890
O638        O  0.99182475  0.17637252  0.15808927    -0.60030
H639        H  0.96229515  0.14809163  0.32852255     0.16910
O640        O  0.92590019  0.19205257  0.34021573    -0.60130
H641        H  0.90679461  0.18094647  0.33242291     0.43900
H642        H  0.97726427  0.17453062  0.12505521     0.43860
C643        C  0.94076308  0.78152432  0.25196925    -0.05210
C644        C  0.95722052  0.78635599  0.20627590    -0.32640
C645        C  0.97508051  0.81188906  0.20279890     0.36610
C646        C  0.97787428  0.83313639  0.24703473    -0.05560
C647        C  0.95977720  0.82859025  0.29175655    -0.32530
C648        C  0.94091862  0.80347436  0.29363143     0.36520
H649        H  0.95706062  0.76962602  0.17366454     0.16890
O650        O  0.99214622  0.81441513  0.15836802    -0.60030
H651        H  0.96159165  0.84291022  0.32785167     0.16910
O652        O  0.92516681  0.79906035  0.33923976    -0.60130
H653        H  0.90613717  0.81027845  0.33117889     0.43900
H654        H  0.97779111  0.81606607  0.12499600     0.43860
C655        C  0.56917865  0.78166796  0.25625626    -0.05210
C656        C  0.56996828  0.80252901  0.21316053    -0.32640
C657        C  0.55145262  0.82813098  0.21073133     0.36610
C658        C  0.53209705  0.83382775  0.25378870    -0.05560
C659        C  0.53420195  0.81367433  0.29950243    -0.32530
C660        C  0.55176257  0.78777626  0.30031233     0.36520
H661        H  0.58318841  0.79769824  0.17864535     0.16890
O662        O  0.54997620  0.84451616  0.16261479    -0.60030
H663        H  0.52007497  0.81682107  0.33331058     0.16990
O664        O  0.55128948  0.76815749  0.34407761    -0.60130
H665        H  0.53195652  0.75723992  0.33801178     0.43900
H666        H  0.56964037  0.85483352  0.16248148     0.43860
C667        C  0.56942770  0.20853677  0.25427251    -0.05210
C668        C  0.56981141  0.18775718  0.21099041    -0.32640
C669        C  0.55123523  0.16219376  0.20899676     0.36610
C670        C  0.53217384  0.15655771  0.25250880    -0.05560
C671        C  0.53478608  0.17654755  0.29839128    -0.32530
C672        C  0.55244328  0.20234321  0.29889757     0.36520
H673        H  0.58275803  0.19261373  0.17610459     0.16890
O674        O  0.54943821  0.14575239  0.16099763    -0.60030
H675        H  0.52095513  0.17337599  0.33263600     0.16910
O676        O  0.55245893  0.22180597  0.34292058    -0.60130
H677        H  0.53311369  0.23277655  0.33764724     0.43900
H678        H  0.56898580  0.13521441  0.16075311     0.43860
N679        N  0.61689717  0.27438206  0.74112385    -0.27030
N680        N  0.59100654  0.28728580  0.74903289    -0.34890
C681        C  0.57035656  0.26584133  0.75468038     0.01310
C682        C  0.58391251  0.23810030  0.74987182     0.07330
C683        C  0.61339206  0.24427372  0.74076313    -0.05760
H684        H  0.54715249  0.27013190  0.76159631     0.08000
H685        H  0.63112380  0.22816121  0.73597248     0.09200
Cu686      Cu  0.58531318  0.33350030  0.75194608     0.44170
Cu687      Cu  0.65555861  0.29925873  0.73632991     0.41990
Cu688      Cu  0.65052420  0.38185150  0.74509302     0.43880
N689        N  0.58342817  0.38009894  0.75128521    -0.34420
N690        N  0.60688018  0.39799408  0.74817031    -0.28670
C691        C  0.59741020  0.42683314  0.74755444    -0.04770
C692        C  0.56666788  0.42681936  0.75072083     0.07440
C693        C  0.55857194  0.39694223  0.75292778     0.01240
H694        H  0.61178784  0.44626609  0.74493808     0.08890
H695        H  0.53618140  0.38804364  0.75504060     0.07970
N696        N  0.69060459  0.35786939  0.74439909    -0.35870
N697        N  0.69184494  0.32816022  0.74137791    -0.28050
C698        C  0.72060838  0.31943269  0.74419410    -0.03290
C699        C  0.73853041  0.34470610  0.74901707     0.05320
C700        C  0.71884649  0.36878538  0.74886778     0.03420
H701        H  0.72786310  0.29622726  0.74335549     0.08520
H702        H  0.72458243  0.39237635  0.75281810     0.07360
N703        N  0.61687026  0.71597348  0.74321525    -0.27030
N704        N  0.59094627  0.70298778  0.75050921    -0.34890
C705        C  0.57022109  0.72435824  0.75621366     0.01310
C706        C  0.58377020  0.75214304  0.75209769     0.07330
C707        C  0.61331490  0.74607200  0.74329269    -0.05760
H708        H  0.54696623  0.71998592  0.76260180     0.08000
H709        H  0.63104043  0.76224225  0.73892020     0.09200
Cu710      Cu  0.58535536  0.65677282  0.75257141     0.44170
Cu711      Cu  0.65561381  0.69117507  0.73860587     0.41990
Cu712      Cu  0.65079998  0.60852518  0.74739077     0.43880
N713        N  0.58359928  0.61020006  0.75205804    -0.34420
N714        N  0.60713307  0.59231667  0.74978398    -0.28670
C715        C  0.59770093  0.56346922  0.74932756    -0.04770
C716        C  0.56689682  0.56348578  0.75167077     0.07440
C717        C  0.55873057  0.59335737  0.75322854     0.01240
H718        H  0.61213705  0.54403447  0.74729505     0.08890
H719        H  0.53628803  0.60225428  0.75464552     0.07970
N720        N  0.69082154  0.63262097  0.74684245    -0.35870
N721        N  0.69197988  0.66233710  0.74380489    -0.28050
C722        C  0.72072085  0.67112638  0.74662655    -0.03290
C723        C  0.73871606  0.64588978  0.75146056     0.05320
C724        C  0.71909628  0.62176646  0.75131835     0.03420
H725        H  0.72791098  0.69434781  0.74573625     0.08520
H726        H  0.72489836  0.59818282  0.75523084     0.07360
N727        N  0.89348739  0.71566844  0.76634015    -0.27030
N728        N  0.91903694  0.70287511  0.75577869    -0.34890
C729        C  0.93960790  0.72435987  0.75001965     0.01310
C730        C  0.92643010  0.75200901  0.75784711     0.07330
C731        C  0.89715477  0.74574699  0.76833366    -0.05760
H732        H  0.96244408  0.72019155  0.74042861     0.08000
H733        H  0.87957071  0.76179644  0.77462448     0.09200
Cu734      Cu  0.92440599  0.65679981  0.74903849     0.44170
Cu735      Cu  0.85487402  0.69080223  0.77138566     0.41990
Cu736      Cu  0.85952945  0.60836863  0.75784996     0.43880
N737        N  0.92635181  0.61024574  0.74818310    -0.34420
N738        N  0.90305115  0.59228092  0.75236915    -0.28670
C739        C  0.91260875  0.56347492  0.75250772    -0.04770
C740        C  0.94322943  0.56359243  0.74776877     0.07440
C741        C  0.95117752  0.59349602  0.74526970     0.01240
H742        H  0.89839488  0.54399486  0.75607316     0.08890
H743        H  0.97348367  0.60248082  0.74249324     0.07970
N744        N  0.81956564  0.63242244  0.76055802    -0.35870
N745        N  0.81848778  0.66206833  0.76531586    -0.28050
C746        C  0.78978081  0.67092852  0.76323785    -0.03290
C747        C  0.77171018  0.64581163  0.75708947     0.05320
C748        C  0.79125583  0.62167789  0.75568568     0.03420
H749        H  0.78266471  0.69413351  0.76539524     0.08520
H750        H  0.78537497  0.59818903  0.75033335     0.07360
O751        O  0.97183569  0.46319764  0.70193332    -0.72680
O752        O  0.53527833  0.52747345  0.70430838    -0.73670
O753        O  0.53518980  0.46321643  0.70384130    -0.62280
O754        O  0.97194103  0.52774489  0.70244433    -0.70700
O755        O  0.97490553  0.52735379  0.79460329    -0.70250
O756        O  0.53806941  0.46276755  0.79599609    -0.61500
O757        O  0.53829584  0.52731469  0.79647423    -0.74010
O758        O  0.97470234  0.46315610  0.79409259    -0.72790
Cu759      Cu  0.50343174  0.49541617  0.69990761     1.04560
Cu760      Cu  0.50663457  0.49514018  0.79851774     1.04330
C761        C  0.96369922  0.45277087  0.74758133     0.93510
C762        C  0.54632554  0.53782894  0.75080806     0.92650
C763        C  0.54612296  0.45251016  0.75018914     0.84800
C764        C  0.96389496  0.53799945  0.74826221     0.91070
N765        N  0.89347346  0.27518684  0.76551159    -0.27030
N766        N  0.91899561  0.28800818  0.75489014    -0.34890
C767        C  0.93968856  0.26656708  0.74976968     0.01310
C768        C  0.92662054  0.23891930  0.75810719     0.07330
C769        C  0.89727446  0.24513120  0.76816853    -0.05760
H770        H  0.96251996  0.27075755  0.74017635     0.08000
H771        H  0.87973203  0.22905283  0.77454551     0.09200
Cu772      Cu  0.92416850  0.33405621  0.74731276     0.44170
Cu773      Cu  0.85476065  0.29999239  0.76977245     0.41990
Cu774      Cu  0.85926016  0.38246855  0.75617859     0.43880
N775        N  0.92607474  0.38059841  0.74656295    -0.34420
N776        N  0.90278061  0.39856308  0.75088054    -0.28670
C777        C  0.91235931  0.42736029  0.75134433    -0.04770
C778        C  0.94298543  0.42722917  0.74667257     0.07440
C779        C  0.95091399  0.39733474  0.74387516     0.01240
H780        H  0.89816136  0.44683756  0.75512389     0.08890
H781        H  0.97322333  0.38834118  0.74112926     0.07970
N782        N  0.81934343  0.35833036  0.75855723    -0.35870
N783        N  0.81832842  0.32867625  0.76328793    -0.28050
C784        C  0.78964238  0.31976072  0.76100545    -0.03290
C785        C  0.77151854  0.34484799  0.75475653     0.05320
C786        C  0.79100869  0.36902450  0.75349984     0.03420
H787        H  0.78257995  0.29654008  0.76314492     0.08520
H788        H  0.78507691  0.39251007  0.74815669     0.07360
C789        C  0.50445827  0.13474625  0.74967253    -0.02230
C790        C  0.50453906  0.85588275  0.75026299    -0.02230
C791        C  0.50662455  0.06048607  0.95098789     0.03390
C792        C  0.50573122  0.07602176  0.50099082    -0.12760
C793        C  0.50492475  0.06018790  0.55071538     0.00890
C794        C  0.50440431  0.02875418  0.55031534    -0.11290
C795        C  0.50604248  0.01227641  0.50058645     0.03380
C796        C  0.50725064  0.02896890  0.95088371    -0.10710
H797        H  0.50555555  0.10042188  0.50118113     0.08980
H798        H  0.50208738  0.01797678  0.58958758     0.06500
H799        H  0.50916080  0.01824974  0.91141879     0.06350
C800        C  0.50828251  0.93042918  0.55173298     0.03390
C801        C  0.50660712  0.91456486  0.50181203    -0.12760
C802        C  0.50504904  0.92998227  0.95134578     0.00890
C803        C  0.50390933  0.96148747  0.95080889    -0.11290
C804        C  0.50643389  0.97825509  0.50079363     0.03380
C805        C  0.50925566  0.96185744  0.55121306    -0.10710
H806        H  0.50639737  0.89016295  0.50223339     0.08980
H807        H  0.50141242  0.97216718  0.91071394     0.06500
H808        H  0.51164437  0.97273142  0.59104600     0.06350
C809        C  0.50561234  0.91294406  0.89910405    -0.05210
C810        C  0.98136209  0.91424278  0.85883321    -0.32640
C811        C  0.98100253  0.89656732  0.81072114     0.36610
C812        C  0.50526859  0.87683875  0.80215516    -0.05560
C813        C  0.53076529  0.87840101  0.84086981    -0.32530
C814        C  0.53070766  0.89550923  0.88917325     0.36520
H815        H  0.96230455  0.92849835  0.86527055     0.16890
O816        O  0.95679038  0.89871686  0.77223138    -0.60030
H817        H  0.55124384  0.86652711  0.83441447     0.16910
O818        O  0.55551201  0.89514585  0.92653808    -0.60130
H819        H  0.56784535  0.91248889  0.91621318     0.43900
H820        H  0.93944366  0.89063279  0.79051740     0.43860
C821        C  0.50322520  0.87770248  0.69990344    -0.05210
C822        C  0.52768991  0.89741442  0.69475276    -0.32640
C823        C  0.52968653  0.91499006  0.64706999     0.36610
C824        C  0.50650461  0.91404643  0.60436707    -0.05560
C825        C  0.98042435  0.89796338  0.61229920    -0.32530
C826        C  0.97807920  0.88064949  0.66003272     0.36520
H827        H  0.54637022  0.89751571  0.72626763     0.16890
O828        O  0.55509361  0.93154269  0.64112143    -0.60030
H829        H  0.96145555  0.89921894  0.58143235     0.16910
O830        O  0.95042550  0.86908156  0.66919644    -0.60130
H831        H  0.94370997  0.85705023  0.63593483     0.43900
H832        H  0.55242563  0.95035170  0.66218958     0.43860
C833        C  0.50707874  0.07738430  0.89857066    -0.05210
C834        C  0.98232477  0.07642293  0.85933892    -0.32640
C835        C  0.98143707  0.09420886  0.81125674     0.36610
C836        C  0.50568796  0.11371165  0.80163426    -0.05560
C837        C  0.53167035  0.11178448  0.83927544    -0.32530
C838        C  0.53211128  0.09459229  0.88766370     0.36520
H839        H  0.96326389  0.06234917  0.86663815     0.16890
O840        O  0.95674337  0.09235574  0.77380795    -0.60030
H841        H  0.55212728  0.12347200  0.83194459     0.16910
O842        O  0.55724875  0.09475611  0.92421468    -0.60130
H843        H  0.56941119  0.07742092  0.91327596     0.43900
H844        H  0.93971939  0.10040394  0.79305897     0.43860
C845        C  0.50222237  0.11306461  0.69907669    -0.05210
C846        C  0.52628613  0.09305409  0.69276996    -0.32640
C847        C  0.52731952  0.07539387  0.64504917     0.36610
C848        C  0.50361993  0.07661442  0.60332408    -0.05560
C849        C  0.97796420  0.09309964  0.61226456    -0.32530
C850        C  0.97651385  0.11041646  0.66026086     0.36520
H851        H  0.54534534  0.09266441  0.72347550     0.16890
O852        O  0.55229201  0.05834118  0.63812965    -0.60030
H853        H  0.95865738  0.09212873  0.58211913     0.16910
O854        O  0.94917123  0.12226435  0.67076495    -0.60130
H855        H  0.94218793  0.13448702  0.63785338     0.43900
H856        H  0.54870456  0.03891182  0.65665826     0.43860
C857        C  0.94102593  0.20943068  0.75244363    -0.05210
C858        C  0.95725278  0.20454288  0.70650490    -0.32640
C859        C  0.97506951  0.17900249  0.70292306     0.36610
C860        C  0.97804505  0.15776865  0.74726135    -0.05560
C861        C  0.96027616  0.16241346  0.79238079    -0.32530
C862        C  0.94143783  0.18756227  0.79437746     0.36520
H863        H  0.95690268  0.22121086  0.67370417     0.16890
O864        O  0.99182477  0.17637252  0.65808927    -0.60030
H865        H  0.96229517  0.14809163  0.82852254     0.16910
O866        O  0.92590020  0.19205256  0.84021571    -0.60130
H867        H  0.90679462  0.18094646  0.83242290     0.43900
H868        H  0.97726429  0.17453061  0.62505520     0.43860
C869        C  0.94076308  0.78152431  0.75196927    -0.05210
C870        C  0.95722051  0.78635598  0.70627592    -0.32640
C871        C  0.97508051  0.81188906  0.70279891     0.36610
C872        C  0.97787427  0.83313638  0.74703474    -0.05560
C873        C  0.95977719  0.82859024  0.79175657    -0.32530
C874        C  0.94091861  0.80347435  0.79363145     0.36520
H875        H  0.95706062  0.76962601  0.67366455     0.16890
O876        O  0.99214621  0.81441512  0.65836803    -0.60030
H877        H  0.96159164  0.84291022  0.82785168     0.16910
O878        O  0.92516680  0.79906034  0.83923977    -0.60130
H879        H  0.90613717  0.81027844  0.83117890     0.43900
H880        H  0.97779110  0.81606606  0.62499601     0.43860
C881        C  0.56917864  0.78166796  0.75625628    -0.05210
C882        C  0.56996828  0.80252901  0.71316055    -0.32640
C883        C  0.55145261  0.82813098  0.71073134     0.36610
C884        C  0.53209704  0.83382775  0.75378871    -0.05560
C885        C  0.53420194  0.81367434  0.79950245    -0.32530
C886        C  0.55176257  0.78777627  0.80031235     0.36520
H887        H  0.58318840  0.79769824  0.67864537     0.16890
O888        O  0.54997619  0.84451616  0.66261480    -0.60030
H889        H  0.52007496  0.81682107  0.83331060     0.16990
O890        O  0.55128948  0.76815750  0.84407764    -0.60130
H891        H  0.53195652  0.75723993  0.83801182     0.43900
H892        H  0.56964035  0.85483352  0.66248149     0.43860
C893        C  0.56942771  0.20853678  0.75427254    -0.05210
C894        C  0.56981143  0.18775719  0.71099043    -0.32640
C895        C  0.55123524  0.16219377  0.70899677     0.36610
C896        C  0.53217385  0.15655771  0.75250882    -0.05560
C897        C  0.53478609  0.17654755  0.79839129    -0.32530
C898        C  0.55244329  0.20234322  0.79889758     0.36520
H899        H  0.58275805  0.19261374  0.67610461     0.16890
O900        O  0.54943823  0.14575240  0.66099764    -0.60030
H901        H  0.52095514  0.17337599  0.83263601     0.16910
O902        O  0.55245894  0.22180597  0.84292060    -0.60130
H903        H  0.53311369  0.23277655  0.83764726     0.43900
H904        H  0.56898582  0.13521442  0.66075312     0.43860
loop_ 
_geom_bond_atom_site_label_1 
_geom_bond_atom_site_label_2 
_geom_bond_distance 
_geom_bond_site_symmetry_2 
_ccdc_geom_bond_type 
N1            N2   1.320       .  A
N1            C5   1.347       .  A
N1           Cu9   2.064       .  S
N2            C3   1.342       .  A
N2           Cu8   2.071       .  S
C3            C4   1.383       .  A
C3            H6   1.082       .  S
C4            C5   1.382       .  A
C4          C215   1.473       .  S
C5            H7   1.082       .  S
Cu8          N11   2.072       .  S
Cu9          N19   2.066       .  S
Cu10         N12   2.087       .  S
Cu10         N18   2.087       .  S
N11          N12   1.324       .  A
N11          C15   1.344       .  A
N12          C13   1.349       .  A
C13          C14   1.384       .  A
C13          H16   1.082       .  S
C14          C15   1.378       .  A
C14          C85   1.465       .  S
C15          H17   1.082       .  S
N18          N19   1.324       .  A
N18          C22   1.349       .  A
N19          C20   1.340       .  A
C20          C21   1.380       .  A
C20          H23   1.082       .  S
C21          C22   1.385       .  A
C21         C107   1.471       .  S
C22          H24   1.082       .  S
N25          N26   1.320       .  A
N25          C29   1.347       .  A
N25         Cu33   2.065       .  S
N26          C27   1.342       .  A
N26         Cu32   2.070       .  S
C27          C28   1.383       .  A
C27          H30   1.082       .  S
C28          C29   1.383       .  A
C28         C203   1.473       .  S
C29          H31   1.082       .  S
Cu32         N35   2.071       .  S
Cu33         N43   2.066       .  S
Cu34         N36   2.088       .  S
Cu34         N42   2.087       .  S
N35          N36   1.324       .  A
N35          C39   1.343       .  A
N36          C37   1.349       .  A
C37          C38   1.384       .  A
C37          H40   1.082       .  S
C38          C39   1.378       .  A
C38          C84   1.465       .  S
C39          H41   1.082       .  S
N42          N43   1.324       .  A
N42          C46   1.350       .  A
N43          C44   1.340       .  A
C44          C45   1.380       .  A
C44          H47   1.082       .  S
C45          C46   1.386       .  A
C45          C69   1.471       .  S
C46          H48   1.082       .  S
N49          N50   1.320       .  A
N49          C53   1.347       .  A
N49         Cu57   2.063       .  S
N50          C51   1.341       .  A
N50         Cu56   2.070       .  S
C51          C52   1.383       .  A
C51          H54   1.082       .  S
C52          C53   1.383       .  A
C52         C191   1.472       .  S
C53          H55   1.082       .  S
Cu56         N59   2.071       .  S
Cu57         N67   2.065       .  S
Cu58         N60   2.088       .  S
Cu58         N66   2.088       .  S
N59          N60   1.324       .  A
N59          C63   1.344       .  A
N60          C61   1.349       .  A
C61          C62   1.384       .  A
C61          H64   1.082       .  S
C62          C63   1.378       .  A
C62          C86   1.465       .  S
C63          H65   1.082       .  S
N66          N67   1.324       .  A
N66          C70   1.350       .  A
N67          C68   1.340       .  A
C68          C69   1.379       .  A
C68          H71   1.082       .  S
C69          C70   1.386       .  A
C70          H72   1.082       .  S
O73          C83   1.278       .  A
O73        Cu533   2.016       .  S
O74          C84   1.277       .  A
O74         Cu81   2.012       .  S
O75          C85   1.277       .  A
O75         Cu81   2.013       .  S
O76          C86   1.278       .  A
O76        Cu533   2.016       .  S
O77          C86   1.277       .  A
O77        Cu534   2.012       .  S
O78          C85   1.278       .  A
O78         Cu82   2.016       .  S
O79          C84   1.278       .  A
O79         Cu82   2.016       .  S
O80          C83   1.277       .  A
O80        Cu534   2.012       .  S
Cu81        O525   2.016   1_455  S
Cu81        O528   2.016   1_455  S
Cu81        Cu82   2.378       .  S
Cu82        O529   2.012   1_455  S
Cu82        O532   2.012   1_455  S
C83         C100   1.465       .  S
N87          N88   1.320       .  A
N87          C91   1.347       .  A
N87         Cu95   2.062       .  S
N88          C89   1.341       .  A
N88         Cu94   2.069       .  S
C89          C90   1.383       .  A
C89          H92   1.082       .  S
C90          C91   1.383       .  A
C90         C179   1.472       .  S
C91          H93   1.082       .  S
Cu94         N97   2.070       .  S
Cu95        N105   2.064       .  S
Cu96         N98   2.088       .  S
Cu96        N104   2.088       .  S
N97          N98   1.324       .  A
N97         C101   1.343       .  A
N98          C99   1.349       .  A
C99         C100   1.384       .  A
C99         H102   1.082       .  S
C100        C101   1.378       .  A
C101        H103   1.082       .  S
N104        N105   1.324       .  A
N104        C108   1.350       .  A
N105        C106   1.340       .  A
C106        C107   1.379       .  A
C106        H109   1.082       .  S
C107        C108   1.386       .  A
C108        H110   1.082       .  S
C111        C158   1.563       .  S
C111        C167   1.555       .  S
C111        C218   1.571       .  S
C111        C634   1.560   1_455  S
C112        C134   1.562       .  S
C112        C143   1.554       .  S
C112        C206   1.571       .  S
C112        C646   1.561   1_455  S
C113        C118   1.401       .  A
C113        C340   1.397       .  A
C113        C155   1.475       .  S
C114        C115   1.396       .  A
C114        C339   1.397   1_554  A
C114        H119   1.084       .  S
C115        C116   1.397       .  A
C115        C170   1.473       .  S
C116        C117   1.416       .  A
C116        H120   1.076       .  S
C117        C344   1.417   1_554  A
C117        C126   1.512   1_545  S
C118        C343   1.417       .  A
C118        H121   1.077       .  S
C122        C123   1.395       .  A
C122        C127   1.397       .  A
C122        C146   1.474       .  S
C123        C350   1.396   1_554  A
C123        H128   1.084       .  S
C124        C125   1.401       .  A
C124        C349   1.396       .  A
C124        C131   1.476       .  S
C125        C352   1.417       .  A
C125        H129   1.077       .  S
C126        C127   1.417       .  A
C126        C351   1.417   1_554  A
C127        H130   1.076       .  S
C131        C136   1.401       .  A
C131        C584   1.398   1_455  A
C132        C133   1.404       .  A
C132        C583   1.398       .  A
C132        H137   1.084       .  S
C133        C586   1.424       .  A
C133        O138   1.372       .  S
C134        C135   1.416       .  A
C134        C585   1.424   1_455  A
C135        C136   1.395       .  A
C135        H139   1.080       .  S
C136        O140   1.372       .  S
O138        H142   0.992       .  S
O140        H141   0.992       .  S
C143        C144   1.415       .  A
C143        C600   1.426   1_455  A
C144        C145   1.401       .  A
C144        H149   1.084       .  S
C145        C146   1.402       .  A
C145        O150   1.372       .  S
C146        C599   1.395   1_455  A
C147        C148   1.398       .  A
C147        C598   1.395       .  A
C147        H151   1.084       .  S
C148        C595   1.426       .  A
C148        O152   1.375       .  S
O150        H154   0.992       .  S
O152        H153   0.992       .  S
C155        C160   1.399       .  A
C155        C608   1.398   1_455  A
C156        C157   1.403       .  A
C156        C607   1.398       .  A
C156        H161   1.084       .  S
C157        C610   1.423       .  A
C157        O162   1.372       .  S
C158        C159   1.418       .  A
C158        C609   1.423   1_455  A
C159        C160   1.396       .  A
C159        H163   1.080       .  S
C160        O164   1.372       .  S
O162        H166   0.992       .  S
O164        H165   0.992       .  S
C167        C168   1.414       .  A
C167        C624   1.428   1_455  A
C168        C169   1.400       .  A
C168        H173   1.084       .  S
C169        C170   1.403       .  A
C169        O174   1.372       .  S
C170        C623   1.393   1_455  A
C171        C172   1.399       .  A
C171        C622   1.393       .  A
C171        H175   1.084       .  S
C172        C619   1.428       .  A
C172        O176   1.375       .  S
O174        H178   0.992       .  S
O176        H177   0.992       .  S
C179        C180   1.394       .  A
C179        C184   1.403       .  A
C180        C181   1.394       .  A
C180        H185   1.084       .  S
C181        C182   1.426       .  A
C181        O186   1.373       .  S
C182        C183   1.418       .  A
C182        C563   1.560       .  S
C183        C184   1.403       .  A
C183        H187   1.079       .  S
C184        O188   1.371       .  S
O186        H190   0.992       .  S
O188        H189   0.992       .  S
C191        C192   1.394       .  A
C191        C196   1.403       .  A
C192        C193   1.394       .  A
C192        H197   1.084       .  S
C193        C194   1.425       .  A
C193        O198   1.373       .  S
C194        C195   1.418       .  A
C194        C564   1.561       .  S
C195        C196   1.402       .  A
C195        H199   1.078       .  S
C196        O200   1.371       .  S
O198        H202   0.992       .  S
O200        H201   0.992       .  S
C203        C204   1.397       .  A
C203        C208   1.398       .  A
C204        C205   1.405       .  A
C204        H209   1.084       .  S
C205        C206   1.431       .  A
C205        O210   1.369       .  S
C206        C207   1.419       .  A
C207        C208   1.392       .  A
C207        H211   1.083       .  S
C208        O212   1.372       .  S
O210        H214   0.992       .  S
O212        H213   0.992       .  S
C215        C216   1.398       .  A
C215        C220   1.398       .  A
C216        C217   1.406       .  A
C216        H221   1.084       .  S
C217        C218   1.430       .  A
C217        O222   1.369       .  S
C218        C219   1.419       .  A
C219        C220   1.392       .  A
C219        H223   1.083       .  S
C220        O224   1.372       .  S
O222        H226   0.992       .  S
O224        H225   0.992       .  S
N227        N228   1.320       .  A
N227        C231   1.347       .  A
N227       Cu235   2.064       .  S
N228        C229   1.342       .  A
N228       Cu234   2.071       .  S
C229        C230   1.383       .  A
C229        H232   1.082       .  S
C230        C231   1.382       .  A
C230        C441   1.473       .  S
C231        H233   1.082       .  S
Cu234       N237   2.072       .  S
Cu235       N245   2.066       .  S
Cu236       N238   2.087       .  S
Cu236       N244   2.087       .  S
N237        N238   1.324       .  A
N237        C241   1.344       .  A
N238        C239   1.349       .  A
C239        C240   1.384       .  A
C239        H242   1.082       .  S
C240        C241   1.378       .  A
C240        C311   1.465       .  S
C241        H243   1.082       .  S
N244        N245   1.324       .  A
N244        C248   1.349       .  A
N245        C246   1.340       .  A
C246        C247   1.380       .  A
C246        H249   1.082       .  S
C247        C248   1.385       .  A
C247        C333   1.471       .  S
C248        H250   1.082       .  S
N251        N252   1.320       .  A
N251        C255   1.347       .  A
N251       Cu259   2.065       .  S
N252        C253   1.342       .  A
N252       Cu258   2.070       .  S
C253        C254   1.383       .  A
C253        H256   1.082       .  S
C254        C255   1.383       .  A
C254        C429   1.473       .  S
C255        H257   1.082       .  S
Cu258       N261   2.071       .  S
Cu259       N269   2.066       .  S
Cu260       N262   2.088       .  S
Cu260       N268   2.087       .  S
N261        N262   1.324       .  A
N261        C265   1.343       .  A
N262        C263   1.349       .  A
C263        C264   1.384       .  A
C263        H266   1.082       .  S
C264        C265   1.378       .  A
C264        C310   1.465       .  S
C265        H267   1.082       .  S
N268        N269   1.324       .  A
N268        C272   1.350       .  A
N269        C270   1.340       .  A
C270        C271   1.380       .  A
C270        H273   1.082       .  S
C271        C272   1.386       .  A
C271        C295   1.471       .  S
C272        H274   1.082       .  S
N275        N276   1.320       .  A
N275        C279   1.347       .  A
N275       Cu283   2.063       .  S
N276        C277   1.341       .  A
N276       Cu282   2.070       .  S
C277        C278   1.383       .  A
C277        H280   1.082       .  S
C278        C279   1.383       .  A
C278        C417   1.472       .  S
C279        H281   1.082       .  S
Cu282       N285   2.071       .  S
Cu283       N293   2.065       .  S
Cu284       N286   2.088       .  S
Cu284       N292   2.088       .  S
N285        N286   1.324       .  A
N285        C289   1.344       .  A
N286        C287   1.349       .  A
C287        C288   1.384       .  A
C287        H290   1.082       .  S
C288        C289   1.378       .  A
C288        C312   1.465       .  S
C289        H291   1.082       .  S
N292        N293   1.324       .  A
N292        C296   1.350       .  A
N293        C294   1.340       .  A
C294        C295   1.379       .  A
C294        H297   1.082       .  S
C295        C296   1.386       .  A
C296        H298   1.082       .  S
O299        C309   1.278       .  A
O299       Cu759   2.016       .  S
O300        C310   1.277       .  A
O300       Cu307   2.012       .  S
O301        C311   1.277       .  A
O301       Cu307   2.013       .  S
O302        C312   1.278       .  A
O302       Cu759   2.016       .  S
O303        C312   1.277       .  A
O303       Cu760   2.012       .  S
O304        C311   1.278       .  A
O304       Cu308   2.016       .  S
O305        C310   1.278       .  A
O305       Cu308   2.016       .  S
O306        C309   1.277       .  A
O306       Cu760   2.012       .  S
Cu307       O751   2.016   1_455  S
Cu307       O754   2.016   1_455  S
Cu307      Cu308   2.378       .  S
Cu308       O755   2.012   1_455  S
Cu308       O758   2.012   1_455  S
C309        C326   1.465       .  S
N313        N314   1.320       .  A
N313        C317   1.347       .  A
N313       Cu321   2.062       .  S
N314        C315   1.341       .  A
N314       Cu320   2.069       .  S
C315        C316   1.383       .  A
C315        H318   1.082       .  S
C316        C317   1.383       .  A
C316        C405   1.472       .  S
C317        H319   1.082       .  S
Cu320       N323   2.070       .  S
Cu321       N331   2.064       .  S
Cu322       N324   2.088       .  S
Cu322       N330   2.088       .  S
N323        N324   1.324       .  A
N323        C327   1.343       .  A
N324        C325   1.349       .  A
C325        C326   1.384       .  A
C325        H328   1.082       .  S
C326        C327   1.378       .  A
C327        H329   1.082       .  S
N330        N331   1.324       .  A
N330        C334   1.350       .  A
N331        C332   1.340       .  A
C332        C333   1.379       .  A
C332        H335   1.082       .  S
C333        C334   1.386       .  A
C334        H336   1.082       .  S
C337        C384   1.563       .  S
C337        C393   1.555       .  S
C337        C860   1.560   1_455  S
C337        C444   1.571       .  S
C338        C360   1.562       .  S
C338        C369   1.554       .  S
C338        C872   1.561   1_455  S
C338        C432   1.571       .  S
C339        C344   1.401       .  A
C339        C381   1.475       .  S
C340        C341   1.396       .  A
C340        H345   1.084       .  S
C341        C342   1.397       .  A
C341        C396   1.473       .  S
C342        C343   1.416       .  A
C342        H346   1.076       .  S
C343        C352   1.512   1_545  S
C344        H347   1.077       .  S
C348        C349   1.395       .  A
C348        C353   1.397       .  A
C348        C372   1.474       .  S
C349        H354   1.084       .  S
C350        C351   1.401       .  A
C350        C357   1.476       .  S
C351        H355   1.077       .  S
C352        C353   1.417       .  A
C353        H356   1.076       .  S
C357        C810   1.398   1_455  A
C357        C362   1.401       .  A
C358        C809   1.398       .  A
C358        C359   1.404       .  A
C358        H363   1.084       .  S
C359        C812   1.424       .  A
C359        O364   1.372       .  S
C360        C811   1.424   1_455  A
C360        C361   1.416       .  A
C361        C362   1.395       .  A
C361        H365   1.080       .  S
C362        O366   1.372       .  S
O364        H368   0.992       .  S
O366        H367   0.992       .  S
C369        C370   1.415       .  A
C369        C826   1.426   1_455  A
C370        C371   1.401       .  A
C370        H375   1.084       .  S
C371        C372   1.402       .  A
C371        O376   1.372       .  S
C372        C825   1.395   1_455  A
C373        C824   1.395       .  A
C373        C374   1.398       .  A
C373        H377   1.084       .  S
C374        C821   1.426       .  A
C374        O378   1.375       .  S
O376        H380   0.992       .  S
O378        H379   0.992       .  S
C381        C834   1.398   1_455  A
C381        C386   1.399       .  A
C382        C833   1.398       .  A
C382        C383   1.403       .  A
C382        H387   1.084       .  S
C383        C836   1.423       .  A
C383        O388   1.372       .  S
C384        C835   1.423   1_455  A
C384        C385   1.418       .  A
C385        C386   1.396       .  A
C385        H389   1.080       .  S
C386        O390   1.372       .  S
O388        H392   0.992       .  S
O390        H391   0.992       .  S
C393        C394   1.414       .  A
C393        C850   1.428   1_455  A
C394        C395   1.400       .  A
C394        H399   1.084       .  S
C395        C396   1.403       .  A
C395        O400   1.372       .  S
C396        C849   1.393   1_455  A
C397        C848   1.393       .  A
C397        C398   1.399       .  A
C397        H401   1.084       .  S
C398        C845   1.428       .  A
C398        O402   1.375       .  S
O400        H404   0.992       .  S
O402        H403   0.992       .  S
C405        C406   1.394       .  A
C405        C410   1.403       .  A
C406        C407   1.394       .  A
C406        H411   1.084       .  S
C407        C408   1.426       .  A
C407        O412   1.373       .  S
C408        C409   1.418       .  A
C408        C789   1.560       .  S
C409        C410   1.403       .  A
C409        H413   1.079       .  S
C410        O414   1.371       .  S
O412        H416   0.992       .  S
O414        H415   0.992       .  S
C417        C418   1.394       .  A
C417        C422   1.403       .  A
C418        C419   1.394       .  A
C418        H423   1.084       .  S
C419        C420   1.425       .  A
C419        O424   1.373       .  S
C420        C421   1.418       .  A
C420        C790   1.561       .  S
C421        C422   1.402       .  A
C421        H425   1.078       .  S
C422        O426   1.371       .  S
O424        H428   0.992       .  S
O426        H427   0.992       .  S
C429        C430   1.397       .  A
C429        C434   1.398       .  A
C430        C431   1.405       .  A
C430        H435   1.084       .  S
C431        C432   1.431       .  A
C431        O436   1.369       .  S
C432        C433   1.419       .  A
C433        C434   1.392       .  A
C433        H437   1.083       .  S
C434        O438   1.372       .  S
O436        H440   0.992       .  S
O438        H439   0.992       .  S
C441        C442   1.398       .  A
C441        C446   1.398       .  A
C442        C443   1.406       .  A
C442        H447   1.084       .  S
C443        C444   1.430       .  A
C443        O448   1.369       .  S
C444        C445   1.419       .  A
C445        C446   1.392       .  A
C445        H449   1.083       .  S
C446        O450   1.372       .  S
O448        H452   0.992       .  S
O450        H451   0.992       .  S
N453        N454   1.320       .  A
N453        C457   1.347       .  A
N453       Cu461   2.064       .  S
N454        C455   1.342       .  A
N454       Cu460   2.071       .  S
C455        C456   1.383       .  A
C455        H458   1.082       .  S
C456        C457   1.382       .  A
C456        C667   1.473       .  S
C457        H459   1.082       .  S
Cu460       N463   2.072       .  S
Cu461       N471   2.066       .  S
Cu462       N464   2.087       .  S
Cu462       N470   2.087       .  S
N463        N464   1.324       .  A
N463        C467   1.344       .  A
N464        C465   1.349       .  A
C465        C466   1.384       .  A
C465        H468   1.082       .  S
C466        C467   1.378       .  A
C466        C537   1.465       .  S
C467        H469   1.082       .  S
N470        N471   1.324       .  A
N470        C474   1.349       .  A
N471        C472   1.340       .  A
C472        C473   1.380       .  A
C472        H475   1.082       .  S
C473        C474   1.385       .  A
C473        C559   1.471       .  S
C474        H476   1.082       .  S
N477        N478   1.320       .  A
N477        C481   1.347       .  A
N477       Cu485   2.065       .  S
N478        C479   1.342       .  A
N478       Cu484   2.070       .  S
C479        C480   1.383       .  A
C479        H482   1.082       .  S
C480        C481   1.383       .  A
C480        C655   1.473       .  S
C481        H483   1.082       .  S
Cu484       N487   2.071       .  S
Cu485       N495   2.066       .  S
Cu486       N488   2.088       .  S
Cu486       N494   2.087       .  S
N487        N488   1.324       .  A
N487        C491   1.343       .  A
N488        C489   1.349       .  A
C489        C490   1.384       .  A
C489        H492   1.082       .  S
C490        C491   1.378       .  A
C490        C536   1.465       .  S
C491        H493   1.082       .  S
N494        N495   1.324       .  A
N494        C498   1.350       .  A
N495        C496   1.340       .  A
C496        C497   1.380       .  A
C496        H499   1.082       .  S
C497        C498   1.386       .  A
C497        C521   1.471       .  S
C498        H500   1.082       .  S
N501        N502   1.320       .  A
N501        C505   1.347       .  A
N501       Cu509   2.063       .  S
N502        C503   1.341       .  A
N502       Cu508   2.070       .  S
C503        C504   1.383       .  A
C503        H506   1.082       .  S
C504        C505   1.383       .  A
C504        C643   1.472       .  S
C505        H507   1.082       .  S
Cu508       N511   2.071       .  S
Cu509       N519   2.065       .  S
Cu510       N512   2.088       .  S
Cu510       N518   2.088       .  S
N511        N512   1.324       .  A
N511        C515   1.344       .  A
N512        C513   1.349       .  A
C513        C514   1.384       .  A
C513        H516   1.082       .  S
C514        C515   1.378       .  A
C514        C538   1.465       .  S
C515        H517   1.082       .  S
N518        N519   1.324       .  A
N518        C522   1.350       .  A
N519        C520   1.340       .  A
C520        C521   1.379       .  A
C520        H523   1.082       .  S
C521        C522   1.386       .  A
C522        H524   1.082       .  S
O525        C535   1.278       .  A
O526        C536   1.277       .  A
O526       Cu533   2.012       .  S
O527        C537   1.277       .  A
O527       Cu533   2.013       .  S
O528        C538   1.278       .  A
O529        C538   1.277       .  A
O530        C537   1.278       .  A
O530       Cu534   2.016       .  S
O531        C536   1.278       .  A
O531       Cu534   2.016       .  S
O532        C535   1.277       .  A
Cu533      Cu534   2.378       .  S
C535        C552   1.465       .  S
N539        N540   1.320       .  A
N539        C543   1.347       .  A
N539       Cu547   2.062       .  S
N540        C541   1.341       .  A
N540       Cu546   2.069       .  S
C541        C542   1.383       .  A
C541        H544   1.082       .  S
C542        C543   1.383       .  A
C542        C631   1.472       .  S
C543        H545   1.082       .  S
Cu546       N549   2.070       .  S
Cu547       N557   2.064       .  S
Cu548       N550   2.088       .  S
Cu548       N556   2.088       .  S
N549        N550   1.324       .  A
N549        C553   1.343       .  A
N550        C551   1.349       .  A
C551        C552   1.384       .  A
C551        H554   1.082       .  S
C552        C553   1.378       .  A
C553        H555   1.082       .  S
N556        N557   1.324       .  A
N556        C560   1.350       .  A
N557        C558   1.340       .  A
C558        C559   1.379       .  A
C558        H561   1.082       .  S
C559        C560   1.386       .  A
C560        H562   1.082       .  S
C563        C610   1.563       .  S
C563        C619   1.555       .  S
C563        C670   1.571       .  S
C564        C586   1.562       .  S
C564        C595   1.554       .  S
C564        C658   1.571       .  S
C565        C792   1.397       .  A
C565        C570   1.401       .  A
C565        C607   1.475       .  S
C566        C791   1.397   1_554  A
C566        C567   1.396       .  A
C566        H571   1.084       .  S
C567        C568   1.397       .  A
C567        C622   1.473       .  S
C568        C569   1.416       .  A
C568        H572   1.076       .  S
C569        C796   1.417   1_554  A
C569        C578   1.512   1_545  S
C570        C795   1.417       .  A
C570        H573   1.077       .  S
C574        C575   1.395       .  A
C574        C579   1.397       .  A
C574        C598   1.474       .  S
C575        C802   1.396   1_554  A
C575        H580   1.084       .  S
C576        C801   1.396       .  A
C576        C577   1.401       .  A
C576        C583   1.476       .  S
C577        C804   1.417       .  A
C577        H581   1.077       .  S
C578        C803   1.417   1_554  A
C578        C579   1.417       .  A
C579        H582   1.076       .  S
C583        C588   1.401       .  A
C584        C585   1.404       .  A
C584        H589   1.084       .  S
C585        O590   1.372       .  S
C586        C587   1.416       .  A
C587        C588   1.395       .  A
C587        H591   1.080       .  S
C588        O592   1.372       .  S
O590        H594   0.992       .  S
O592        H593   0.992       .  S
C595        C596   1.415       .  A
C596        C597   1.401       .  A
C596        H601   1.084       .  S
C597        C598   1.402       .  A
C597        O602   1.372       .  S
C599        C600   1.398       .  A
C599        H603   1.084       .  S
C600        O604   1.375       .  S
O602        H606   0.992       .  S
O604        H605   0.992       .  S
C607        C612   1.399       .  A
C608        C609   1.403       .  A
C608        H613   1.084       .  S
C609        O614   1.372       .  S
C610        C611   1.418       .  A
C611        C612   1.396       .  A
C611        H615   1.080       .  S
C612        O616   1.372       .  S
O614        H618   0.992       .  S
O616        H617   0.992       .  S
C619        C620   1.414       .  A
C620        C621   1.400       .  A
C620        H625   1.084       .  S
C621        C622   1.403       .  A
C621        O626   1.372       .  S
C623        C624   1.399       .  A
C623        H627   1.084       .  S
C624        O628   1.375       .  S
O626        H630   0.992       .  S
O628        H629   0.992       .  S
C631        C632   1.394       .  A
C631        C636   1.403       .  A
C632        C633   1.394       .  A
C632        H637   1.084       .  S
C633        C634   1.426       .  A
C633        O638   1.373       .  S
C634        C635   1.418       .  A
C635        C636   1.403       .  A
C635        H639   1.079       .  S
C636        O640   1.371       .  S
O638        H642   0.992       .  S
O640        H641   0.992       .  S
C643        C644   1.394       .  A
C643        C648   1.403       .  A
C644        C645   1.394       .  A
C644        H649   1.084       .  S
C645        C646   1.425       .  A
C645        O650   1.373       .  S
C646        C647   1.418       .  A
C647        C648   1.402       .  A
C647        H651   1.078       .  S
C648        O652   1.371       .  S
O650        H654   0.992       .  S
O652        H653   0.992       .  S
C655        C656   1.397       .  A
C655        C660   1.398       .  A
C656        C657   1.405       .  A
C656        H661   1.084       .  S
C657        C658   1.431       .  A
C657        O662   1.369       .  S
C658        C659   1.419       .  A
C659        C660   1.392       .  A
C659        H663   1.083       .  S
C660        O664   1.372       .  S
O662        H666   0.992       .  S
O664        H665   0.992       .  S
C667        C668   1.398       .  A
C667        C672   1.398       .  A
C668        C669   1.406       .  A
C668        H673   1.084       .  S
C669        C670   1.430       .  A
C669        O674   1.369       .  S
C670        C671   1.419       .  A
C671        C672   1.392       .  A
C671        H675   1.083       .  S
C672        O676   1.372       .  S
O674        H678   0.992       .  S
O676        H677   0.992       .  S
N679        N680   1.320       .  A
N679        C683   1.347       .  A
N679       Cu687   2.064       .  S
N680        C681   1.342       .  A
N680       Cu686   2.071       .  S
C681        C682   1.383       .  A
C681        H684   1.082       .  S
C682        C683   1.382       .  A
C682        C893   1.473       .  S
C683        H685   1.082       .  S
Cu686       N689   2.072       .  S
Cu687       N697   2.066       .  S
Cu688       N690   2.087       .  S
Cu688       N696   2.087       .  S
N689        N690   1.324       .  A
N689        C693   1.344       .  A
N690        C691   1.349       .  A
C691        C692   1.384       .  A
C691        H694   1.082       .  S
C692        C693   1.378       .  A
C692        C763   1.465       .  S
C693        H695   1.082       .  S
N696        N697   1.324       .  A
N696        C700   1.349       .  A
N697        C698   1.340       .  A
C698        C699   1.380       .  A
C698        H701   1.082       .  S
C699        C700   1.385       .  A
C699        C785   1.471       .  S
C700        H702   1.082       .  S
N703        N704   1.320       .  A
N703        C707   1.347       .  A
N703       Cu711   2.065       .  S
N704        C705   1.342       .  A
N704       Cu710   2.070       .  S
C705        C706   1.383       .  A
C705        H708   1.082       .  S
C706        C707   1.383       .  A
C706        C881   1.473       .  S
C707        H709   1.082       .  S
Cu710       N713   2.071       .  S
Cu711       N721   2.066       .  S
Cu712       N714   2.088       .  S
Cu712       N720   2.087       .  S
N713        N714   1.324       .  A
N713        C717   1.343       .  A
N714        C715   1.349       .  A
C715        C716   1.384       .  A
C715        H718   1.082       .  S
C716        C717   1.378       .  A
C716        C762   1.465       .  S
C717        H719   1.082       .  S
N720        N721   1.324       .  A
N720        C724   1.350       .  A
N721        C722   1.340       .  A
C722        C723   1.380       .  A
C722        H725   1.082       .  S
C723        C724   1.386       .  A
C723        C747   1.471       .  S
C724        H726   1.082       .  S
N727        N728   1.320       .  A
N727        C731   1.347       .  A
N727       Cu735   2.063       .  S
N728        C729   1.341       .  A
N728       Cu734   2.070       .  S
C729        C730   1.383       .  A
C729        H732   1.082       .  S
C730        C731   1.383       .  A
C730        C869   1.472       .  S
C731        H733   1.082       .  S
Cu734       N737   2.071       .  S
Cu735       N745   2.065       .  S
Cu736       N738   2.088       .  S
Cu736       N744   2.088       .  S
N737        N738   1.324       .  A
N737        C741   1.344       .  A
N738        C739   1.349       .  A
C739        C740   1.384       .  A
C739        H742   1.082       .  S
C740        C741   1.378       .  A
C740        C764   1.465       .  S
C741        H743   1.082       .  S
N744        N745   1.324       .  A
N744        C748   1.350       .  A
N745        C746   1.340       .  A
C746        C747   1.379       .  A
C746        H749   1.082       .  S
C747        C748   1.386       .  A
C748        H750   1.082       .  S
O751        C761   1.278       .  A
O752        C762   1.277       .  A
O752       Cu759   2.012       .  S
O753        C763   1.277       .  A
O753       Cu759   2.013       .  S
O754        C764   1.278       .  A
O755        C764   1.277       .  A
O756        C763   1.278       .  A
O756       Cu760   2.016       .  S
O757        C762   1.278       .  A
O757       Cu760   2.016       .  S
O758        C761   1.277       .  A
Cu759      Cu760   2.378       .  S
C761        C778   1.465       .  S
N765        N766   1.320       .  A
N765        C769   1.347       .  A
N765       Cu773   2.062       .  S
N766        C767   1.341       .  A
N766       Cu772   2.069       .  S
C767        C768   1.383       .  A
C767        H770   1.082       .  S
C768        C769   1.383       .  A
C768        C857   1.472       .  S
C769        H771   1.082       .  S
Cu772       N775   2.070       .  S
Cu773       N783   2.064       .  S
Cu774       N776   2.088       .  S
Cu774       N782   2.088       .  S
N775        N776   1.324       .  A
N775        C779   1.343       .  A
N776        C777   1.349       .  A
C777        C778   1.384       .  A
C777        H780   1.082       .  S
C778        C779   1.378       .  A
C779        H781   1.082       .  S
N782        N783   1.324       .  A
N782        C786   1.350       .  A
N783        C784   1.340       .  A
C784        C785   1.379       .  A
C784        H787   1.082       .  S
C785        C786   1.386       .  A
C786        H788   1.082       .  S
C789        C836   1.563       .  S
C789        C845   1.555       .  S
C789        C896   1.571       .  S
C790        C812   1.562       .  S
C790        C821   1.554       .  S
C790        C884   1.571       .  S
C791        C796   1.401       .  A
C791        C833   1.475       .  S
C792        C793   1.396       .  A
C792        H797   1.084       .  S
C793        C794   1.397       .  A
C793        C848   1.473       .  S
C794        C795   1.416       .  A
C794        H798   1.076       .  S
C795        C804   1.512   1_545  S
C796        H799   1.077       .  S
C800        C801   1.395       .  A
C800        C805   1.397       .  A
C800        C824   1.474       .  S
C801        H806   1.084       .  S
C802        C803   1.401       .  A
C802        C809   1.476       .  S
C803        H807   1.077       .  S
C804        C805   1.417       .  A
C805        H808   1.076       .  S
C809        C814   1.401       .  A
C810        C811   1.404       .  A
C810        H815   1.084       .  S
C811        O816   1.372       .  S
C812        C813   1.416       .  A
C813        C814   1.395       .  A
C813        H817   1.080       .  S
C814        O818   1.372       .  S
O816        H820   0.992       .  S
O818        H819   0.992       .  S
C821        C822   1.415       .  A
C822        C823   1.401       .  A
C822        H827   1.084       .  S
C823        C824   1.402       .  A
C823        O828   1.372       .  S
C825        C826   1.398       .  A
C825        H829   1.084       .  S
C826        O830   1.375       .  S
O828        H832   0.992       .  S
O830        H831   0.992       .  S
C833        C838   1.399       .  A
C834        C835   1.403       .  A
C834        H839   1.084       .  S
C835        O840   1.372       .  S
C836        C837   1.418       .  A
C837        C838   1.396       .  A
C837        H841   1.080       .  S
C838        O842   1.372       .  S
O840        H844   0.992       .  S
O842        H843   0.992       .  S
C845        C846   1.414       .  A
C846        C847   1.400       .  A
C846        H851   1.084       .  S
C847        C848   1.403       .  A
C847        O852   1.372       .  S
C849        C850   1.399       .  A
C849        H853   1.084       .  S
C850        O854   1.375       .  S
O852        H856   0.992       .  S
O854        H855   0.992       .  S
C857        C858   1.394       .  A
C857        C862   1.403       .  A
C858        C859   1.394       .  A
C858        H863   1.084       .  S
C859        C860   1.426       .  A
C859        O864   1.373       .  S
C860        C861   1.418       .  A
C861        C862   1.403       .  A
C861        H865   1.079       .  S
C862        O866   1.371       .  S
O864        H868   0.992       .  S
O866        H867   0.992       .  S
C869        C870   1.394       .  A
C869        C874   1.403       .  A
C870        C871   1.394       .  A
C870        H875   1.084       .  S
C871        C872   1.425       .  A
C871        O876   1.373       .  S
C872        C873   1.418       .  A
C873        C874   1.402       .  A
C873        H877   1.078       .  S
C874        O878   1.371       .  S
O876        H880   0.992       .  S
O878        H879   0.992       .  S
C881        C882   1.397       .  A
C881        C886   1.398       .  A
C882        C883   1.405       .  A
C882        H887   1.084       .  S
C883        C884   1.431       .  A
C883        O888   1.369       .  S
C884        C885   1.419       .  A
C885        C886   1.392       .  A
C885        H889   1.083       .  S
C886        O890   1.372       .  S
O888        H892   0.992       .  S
O890        H891   0.992       .  S
C893        C894   1.398       .  A
C893        C898   1.398       .  A
C894        C895   1.406       .  A
C894        H899   1.084       .  S
C895        C896   1.430       .  A
C895        O900   1.369       .  S
C896        C897   1.419       .  A
C897        C898   1.392       .  A
C897        H901   1.083       .  S
C898        O902   1.372       .  S
O900        H904   0.992       .  S
O902        H903   0.992       .  S
