geometry optimzed in LAMMPS
_audit_creation_date              2020-11-30 
_audit_creation_method            'lammps2cif' 
_symmetry_space_group_name_H-M    'P1' 
_symmetry_Int_Tables_number       1 
_symmetry_cell_setting            triclinic 
loop_ 
_symmetry_equiv_pos_as_xyz 
  x,y,z 
_cell_length_a                    38.70564749306965 
_cell_length_b                    38.49487211255514 
_cell_length_c                    38.7244039976324 
_cell_angle_alpha                 89.89028389199326 
_cell_angle_beta                  88.45403787098917 
_cell_angle_gamma                 90.44681753687358 
loop_ 
_atom_site_label 
_atom_site_type_symbol 
_atom_site_fract_x 
_atom_site_fract_y 
_atom_site_fract_z 
_atom_site_charge 
C1          C  0.74041459  0.47364416  0.00929973    -0.02680
C2          C  0.48827183  0.71650002  0.99011318    -0.02680
C3          C  0.98346879  0.48528954  0.74189161    -0.02680
C4          C  0.48783833  0.98110092  0.75122419    -0.02680
C5          C  0.73313283  0.98228261  0.49306026    -0.02680
C6          C  0.98848537  0.74517797  0.49522113    -0.02680
C7          C  0.22330291  0.47561691  0.99535446    -0.02680
O8          O  0.96168812  0.66538230  0.03428992    -0.73140
O9          O  0.03170695  0.68678412  0.95577044    -0.74120
O10         O  0.95963120  0.66674408  0.96091687    -0.62740
O11         O  0.03305216  0.68652660  0.03126554    -0.71150
O12         O  0.04951220  0.63146358  0.02721723    -0.70700
O13         O  0.97552135  0.61144443  0.96114143    -0.61960
O14         O  0.04539700  0.63080965  0.95610783    -0.74460
O15         O  0.98100122  0.61157632  0.03210379    -0.73240
Cu16       Cu  0.99628413  0.67875745  0.99547837     1.04560
Cu17       Cu  0.01355458  0.61981364  0.99396377     1.04330
C18         C  0.96021878  0.63384533  0.04488248     0.93060
C19         C  0.04879863  0.66106433  0.94331907     0.92200
C20         C  0.95478933  0.63517608  0.95194834     0.84340
C21         C  0.05171465  0.66130388  0.04117012     0.90620
C22         C  0.86914942  0.51980906  0.84124002     0.02930
C23         C  0.84809328  0.49834148  0.86307755    -0.13220
C24         C  0.82455559  0.51357326  0.88708719     0.00430
C25         C  0.82362773  0.54989184  0.89019495    -0.11740
C26         C  0.84935790  0.57042015  0.87409289     0.02930
C27         C  0.86727063  0.55617568  0.84580832    -0.11160
H28         H  0.85138060  0.47046417  0.86305992     0.08520
H29         H  0.80825811  0.56115065  0.91112219     0.06050
H30         H  0.88454171  0.57289567  0.83092091     0.05900
C31         C  0.98590016  0.49224705  0.25875117    -0.02680
C32         C  0.86537841  0.52120144  0.17057752     0.02930
C33         C  0.84258954  0.49910035  0.15225915    -0.13220
C34         C  0.82330094  0.51298936  0.12480791     0.00430
C35         C  0.83081550  0.54700469  0.11338570    -0.11740
C36         C  0.85452444  0.56767782  0.13041024     0.02930
C37         C  0.86533031  0.55696758  0.16262432    -0.11160
H38         H  0.84120875  0.47159489  0.15766606     0.08520
H39         H  0.82131879  0.55586235  0.08881144     0.06050
H40         H  0.88200443  0.57457694  0.17645742     0.05900
C41         C  0.12696190  0.50903825  0.89071045     0.02930
C42         C  0.11077118  0.49256449  0.86317316    -0.13220
C43         C  0.09043604  0.51219384  0.84107927     0.00430
C44         C  0.08872621  0.54840602  0.84498551    -0.11740
C45         C  0.10341069  0.56529042  0.87308288     0.02930
C46         C  0.12107741  0.54466328  0.89677265    -0.11160
H47         H  0.11464110  0.46514808  0.85837948     0.08520
H48         H  0.07484496  0.56317295  0.82614390     0.06050
H49         H  0.13105839  0.55607109  0.91999009     0.05900
O50         O  0.50206767  0.48079321  0.87629368    -0.73140
O51         O  0.42613156  0.54445805  0.85132696    -0.74120
O52         O  0.49900664  0.53711778  0.83134216    -0.62740
O53         O  0.43332139  0.48801426  0.89913155    -0.71150
O54         O  0.45036221  0.52383942  0.94022361    -0.70700
O55         O  0.51024619  0.57433235  0.87345310    -0.61960
O56         O  0.44038268  0.58001528  0.89380371    -0.74460
O57         O  0.51894375  0.51698364  0.91710293    -0.73240
Cu58       Cu  0.46421757  0.51161435  0.86280223     1.04560
Cu59       Cu  0.48025025  0.55025419  0.90736436     1.04330
C60         C  0.52232417  0.48839705  0.90054963     0.93060
C61         C  0.42077706  0.57194829  0.86892493     0.92200
C62         C  0.51720393  0.56187774  0.84369458     0.84340
C63         C  0.43358865  0.49705495  0.93099582     0.90620
C64         C  0.60297008  0.62608370  0.96417091     0.02930
C65         C  0.59672978  0.62114660  0.92904258    -0.13220
C66         C  0.61732461  0.59896784  0.90838092     0.00430
C67         C  0.64579558  0.58308050  0.92354769    -0.11740
C68         C  0.65095046  0.58573683  0.95931590     0.02930
C69         C  0.62969563  0.60768288  0.97956159    -0.11160
H70         H  0.57417843  0.63330686  0.91840282     0.08520
H71         H  0.66274824  0.56668005  0.90823374     0.06050
H72         H  0.63279563  0.60902110  0.00725650     0.05900
C73         C  0.48413556  0.24094737  0.99391902    -0.02680
O74         O  0.61945014  0.94636503  0.03349407    -0.73140
O75         O  0.60807317  0.02899624  0.97505440    -0.74120
O76         O  0.60408711  0.95832207  0.96564969    -0.62740
O77         O  0.62264951  0.01746935  0.04368678    -0.71150
O78         O  0.67883281  0.01960280  0.03049567    -0.70700
O79         O  0.65914246  0.95352408  0.95005846    -0.61960
O80         O  0.66326698  0.02758254  0.95781015    -0.74460
O81         O  0.67578654  0.94454413  0.02090938    -0.73240
Cu82       Cu  0.61202663  0.98795455  0.00496648     1.04560
Cu83       Cu  0.67166624  0.98650086  0.98938506     1.04330
C84         C  0.64867608  0.93165044  0.03570819     0.93060
C85         C  0.63307429  0.04063434  0.95623119     0.92200
C86         C  0.62735574  0.94541789  0.94587236     0.84340
C87         C  0.65291703  0.02819111  0.04995603     0.90620
C88         C  0.52045929  0.84842711  0.82293183     0.02930
C89         C  0.50144802  0.82258982  0.84231767    -0.13220
C90         C  0.51874568  0.80222054  0.86749052     0.00430
C91         C  0.55248781  0.81216098  0.87613399    -0.11740
C92         C  0.56953512  0.83927440  0.85897559     0.02930
C93         C  0.55633974  0.85106897  0.82811568    -0.11160
H94         H  0.47384350  0.81978440  0.83940547     0.08520
H95         H  0.56342813  0.80234570  0.89972577     0.06050
H96         H  0.57116049  0.87095595  0.81426174     0.05900
C97         C  0.49921752  0.98096268  0.23528549    -0.02680
C98         C  0.51909142  0.86043188  0.14289249     0.02930
C99         C  0.50042066  0.83219258  0.12880427    -0.13220
C100        C  0.51686821  0.81062172  0.10371112     0.00430
C101        C  0.55242155  0.81432500  0.09665211    -0.11740
C102        C  0.57022411  0.84376330  0.10753989     0.02930
C103        C  0.55230077  0.86758047  0.12831869    -0.11160
H104        H  0.47382883  0.82712865  0.13643261     0.08520
H105        H  0.56497027  0.79639720  0.07889417     0.06050
H106        H  0.56456533  0.89231203  0.13358016     0.05900
C107        C  0.48971183  0.14642406  0.87984193     0.02930
C108        C  0.47168381  0.12095782  0.86139059    -0.13220
C109        C  0.48961282  0.09187374  0.84864003     0.00430
C110        C  0.52415710  0.08695881  0.85815588    -0.11740
C111        C  0.54233160  0.11276673  0.87628573     0.02930
C112        C  0.52569714  0.14431346  0.88220203    -0.11160
H113        H  0.44400035  0.12282277  0.85857202     0.08520
H114        H  0.53626415  0.06237693  0.85222396     0.06050
H115        H  0.53955175  0.16577888  0.89340720     0.05900
O116        O  0.11656635  0.52317943  0.54618363    -0.73140
O117        O  0.10776569  0.44520626  0.48103799    -0.74120
O118        O  0.12086224  0.45126185  0.55020123    -0.62740
O119        O  0.10249040  0.51613186  0.47684287    -0.71150
O120        O  0.15755238  0.52353174  0.46242384    -0.70700
O121        O  0.17742074  0.45259532  0.53880486    -0.61960
O122        O  0.16341511  0.44885020  0.46587228    -0.74460
O123        O  0.17292028  0.52769314  0.53428483    -0.73240
Cu124      Cu  0.11034022  0.48377340  0.51393752     1.04560
Cu125      Cu  0.17019530  0.48818656  0.49982292     1.04330
C126        C  0.14564140  0.53820697  0.55025297     0.93060
C127        C  0.13367999  0.43458427  0.46318874     0.92200
C128        C  0.15122561  0.44127261  0.55660339     0.84340
C129        C  0.12568790  0.53125265  0.45861671     0.90620
C130        C  0.01531505  0.59327314  0.64099418     0.02930
C131        C  0.99741383  0.61908548  0.62288129    -0.13220
C132        C  0.01597122  0.64670910  0.60680748     0.00430
C133        C  0.05180174  0.64964428  0.61116506    -0.11740
C134        C  0.07048999  0.62216089  0.62522694     0.02930
C135        C  0.05156995  0.59525565  0.64171308    -0.11160
H136        H  0.96985975  0.61641979  0.61933540     0.08520
H137        H  0.06549912  0.67100071  0.59857125     0.06050
H138        H  0.06504868  0.57373439  0.65274793     0.05900
O139        O  0.51029739  0.17278304  0.56582799    -0.73140
O140        O  0.42917915  0.14500589  0.50772868    -0.74120
O141        O  0.43452291  0.17686145  0.57500343    -0.62740
O142        O  0.49992823  0.14079089  0.50023694    -0.71150
O143        O  0.49820277  0.08987028  0.52698779    -0.70700
O144        O  0.43603464  0.12486891  0.59987732    -0.61960
O145        O  0.42788724  0.09401966  0.53417559    -0.74460
O146        O  0.50768825  0.12084936  0.59095021    -0.73240
Cu147      Cu  0.46849926  0.16126315  0.53693541     1.04560
Cu148      Cu  0.46735632  0.10613258  0.56425547     1.04330
C149        C  0.52311568  0.14978743  0.58556475     0.93060
C150        C  0.41937990  0.11320704  0.50891996     0.92200
C151        C  0.42374118  0.15534995  0.59826608     0.84340
C152        C  0.50678889  0.10838150  0.50081748     0.90620
C153        C  0.60676782  0.01838350  0.66149677     0.02930
C154        C  0.63400794  0.00207858  0.64295561    -0.13220
C155        C  0.65470712  0.02160024  0.61914422     0.00430
C156        C  0.64965063  0.05767182  0.61609801    -0.11740
C157        C  0.62173202  0.07389167  0.63321439     0.02930
C158        C  0.60001275  0.05341065  0.65448893    -0.11160
H159        H  0.63832169  0.97450996  0.64589099     0.08520
H160        H  0.66548019  0.07225463  0.59759381     0.06050
H161        H  0.57646867  0.06448037  0.66523731     0.05900
C162        C  0.24506372  0.98709629  0.49036482    -0.02680
O163        O  0.94916823  0.90284251  0.59295119    -0.73140
O164        O  0.02860366  0.97100919  0.58186764    -0.74120
O165        O  0.01400786  0.91162592  0.62169876    -0.62740
O166        O  0.96652799  0.95968604  0.54879809    -0.71150
O167        O  0.94344384  0.99639308  0.58693830    -0.70700
O168        O  0.99378480  0.94607164  0.66338664    -0.61960
O169        O  0.00419722  0.00437025  0.62200449    -0.74460
O170        O  0.92661196  0.93862729  0.63229835    -0.73240
Cu171      Cu  0.99014620  0.93484119  0.58514029     1.04560
Cu172      Cu  0.96558590  0.97220992  0.62773555     1.04330
C173        C  0.92519885  0.91064936  0.61496750     0.93060
C174        C  0.02819910  0.99903611  0.59991133     0.92200
C175        C  0.01449726  0.92229188  0.65266943     0.84340
C176        C  0.95046185  0.98750051  0.55554674     0.90620
C177        C  0.80738694  0.85309712  0.52323425     0.02930
C178        C  0.83616993  0.83809935  0.50601038    -0.13220
C179        C  0.85730593  0.81503738  0.52391939     0.00430
C180        C  0.84930460  0.80769220  0.55874651    -0.11740
C181        C  0.82553488  0.82829460  0.57742610     0.02930
C182        C  0.80050504  0.84489386  0.55807141    -0.11160
H183        H  0.84327198  0.84608007  0.47991571     0.08520
H184        H  0.86663016  0.79089509  0.57231732     0.06050
H185        H  0.77872501  0.85672025  0.57104818     0.05900
C186        C  0.98951844  0.23151774  0.49397194    -0.02680
C187        C  0.88270252  0.13540377  0.47093169     0.02930
C188        C  0.84865136  0.12262634  0.47624860    -0.13220
C189        C  0.84163397  0.08729126  0.46938364     0.00430
C190        C  0.86919987  0.06537955  0.46065871    -0.11740
C191        C  0.90303783  0.07768031  0.45715022     0.02930
C192        C  0.90835888  0.11354559  0.45694359    -0.11160
H193        H  0.82865431  0.13938329  0.48669206     0.08520
H194        H  0.86445347  0.03764652  0.46141971     0.06050
H195        H  0.93463474  0.12339138  0.45405758     0.05900
C196        C  0.14613487  0.88105013  0.54095714     0.02930
C197        C  0.12550254  0.85823059  0.52184331    -0.13220
C198        C  0.09590728  0.84288200  0.53724843     0.00430
C199        C  0.08686346  0.85061031  0.57155815    -0.11740
C200        C  0.10778085  0.87193413  0.59196074     0.02930
C201        C  0.13754734  0.88722138  0.57611119    -0.11160
H202        H  0.13149014  0.85378813  0.49472019     0.08520
H203        H  0.06241421  0.84073805  0.58180592     0.06050
H204        H  0.15316280  0.90537338  0.59037781     0.05900
C205        C  0.37529663  0.00846232  0.65624589     0.02930
C206        C  0.37308057  0.04477944  0.65906391    -0.13220
C207        C  0.34813742  0.06410137  0.64132177     0.00430
C208        C  0.32369718  0.04522174  0.62281783    -0.11740
C209        C  0.32875537  0.01001650  0.61468697     0.02930
C210        C  0.35416415  0.99117463  0.63233966    -0.11160
H211        H  0.39254761  0.05778483  0.67395846     0.08520
H212        H  0.30174523  0.05804827  0.61226442     0.06050
H213        H  0.35829928  0.96398660  0.62663062     0.05900
C214        C  0.00539954  0.36734834  0.65678155     0.03170
C215        C  0.04109078  0.37482116  0.65339450    -0.13220
C216        C  0.06037693  0.36706573  0.62346473     0.00430
C217        C  0.04447295  0.34557839  0.59905136    -0.11740
C218        C  0.01071382  0.33214613  0.60468875     0.02930
C219        C  0.99047615  0.34455480  0.63288359    -0.11160
H220        H  0.05382411  0.38728468  0.67437850     0.08520
H221        H  0.05843499  0.33824254  0.57564606     0.06050
H222        H  0.96409809  0.33561501  0.63697960     0.05900
C223        C  0.10448528  0.14423371  0.49957529     0.02930
C224        C  0.08962085  0.13638663  0.53205321    -0.13220
C225        C  0.10784052  0.11784234  0.55588902     0.00430
C226        C  0.14349183  0.11628771  0.55100859    -0.11740
C227        C  0.15650888  0.11201983  0.51727213     0.02930
C228        C  0.13772172  0.12975532  0.49088802    -0.11160
H229        H  0.06224847  0.14032739  0.53707635     0.08520
H230        H  0.15908706  0.11037930  0.57279252     0.06050
H231        H  0.14702101  0.13010121  0.46430448     0.05900
C232        C  0.59023837  0.99707314  0.34517179     0.02930
C233        C  0.62341178  0.99146396  0.35778113    -0.13220
C234        C  0.63188363  0.00549519  0.38991551     0.00430
C235        C  0.60681587  0.02370720  0.40905371    -0.11740
C236        C  0.57487146  0.03070946  0.39556121     0.02930
C237        C  0.56618319  0.01713756  0.36384615    -0.11160
H238        H  0.64224547  0.97684135  0.34273173     0.08520
H239        H  0.61214923  0.03286955  0.43486077     0.06050
H240        H  0.54086971  0.02218905  0.35364330     0.05900
C241        C  0.01867870  0.61391465  0.33712896     0.02930
C242        C  0.00226901  0.64248481  0.35288787    -0.13220
C243        C  0.02177157  0.66672266  0.37165232     0.00430
C244        C  0.05742174  0.66115854  0.37518659    -0.11740
C245        C  0.07264915  0.63054532  0.36298723     0.02930
C246        C  0.05460080  0.61032484  0.33962403    -0.11160
H247        H  0.97436557  0.64434158  0.35285945     0.08520
H248        H  0.07120959  0.67608699  0.39422647     0.06050
H249        H  0.06664269  0.58677781  0.33015597     0.05900
C250        C  0.65951365  0.36032284  0.97407904     0.02930
C251        C  0.64624300  0.38366866  0.94998299    -0.13220
C252        C  0.61381514  0.37829280  0.93614920     0.00430
C253        C  0.59633222  0.34721037  0.94250697    -0.11740
C254        C  0.60900414  0.32297928  0.96588300     0.02930
C255        C  0.64025323  0.33006536  0.98284996    -0.11160
H256        H  0.65956074  0.40804111  0.94470137     0.08520
H257        H  0.57065745  0.34371404  0.93240667     0.06050
H258        H  0.64887360  0.31290926  0.00301888     0.05900
C259        C  0.52820886  0.14854773  0.11020892     0.02930
C260        C  0.56242421  0.13687591  0.10375546    -0.13220
C261        C  0.57965534  0.11621583  0.12770069     0.00430
C262        C  0.56118509  0.10671316  0.15789703    -0.11740
C263        C  0.52510913  0.10946981  0.15992885     0.02930
C264        C  0.50866111  0.13206011  0.13701912    -0.11160
H265        H  0.57496081  0.14288221  0.07917245     0.08520
H266        H  0.57388273  0.09176956  0.17722815     0.06050
H267        H  0.48102218  0.13565082  0.13950764     0.05900
C268        C  0.35548746  0.64384967  0.97701970     0.02930
C269        C  0.33870118  0.61553141  0.99355379    -0.13220
C270        C  0.31279497  0.59717394  0.97613606     0.00430
C271        C  0.30657627  0.60543887  0.94139484    -0.11740
C272        C  0.32527845  0.63187616  0.92381035     0.02930
C273        C  0.34553323  0.65395283  0.94400646    -0.11160
H274        H  0.34642840  0.60725641  0.01894206     0.08520
H275        H  0.28885396  0.58929645  0.92756817     0.06050
H276        H  0.35921073  0.67574967  0.93230798     0.05900
C277        C  0.13532646  0.52356170  0.10959369     0.02930
C278        C  0.11737808  0.50772338  0.13713312    -0.13220
C279        C  0.09689503  0.52798559  0.15935610     0.00430
C280        C  0.09685858  0.56433749  0.15562047    -0.11740
C281        C  0.11328536  0.58051453  0.12689585     0.02930
C282        C  0.13210836  0.55925821  0.10378912    -0.11160
H283        H  0.11826003  0.47978481  0.14042677     0.08520
H284        H  0.08191365  0.57947321  0.17406647     0.06050
H285        H  0.14262275  0.56957608  0.07973469     0.05900
C286        C  0.01180623  0.36990275  0.33819887     0.02930
C287        C  0.04600607  0.37684961  0.34795509    -0.13220
C288        C  0.06380066  0.35333286  0.36863793     0.00430
C289        C  0.04724404  0.32198936  0.37727273    -0.11740
C290        C  0.01137931  0.31915489  0.37462356     0.02930
C291        C  0.99355810  0.34226789  0.35375903    -0.11160
H292        H  0.05757678  0.40162042  0.34094731     0.08520
H293        H  0.06042902  0.30323289  0.39308487     0.06050
H294        H  0.96592835  0.33952668  0.35074307     0.05900
C295        C  0.38387479  0.01021706  0.33643990     0.02930
C296        C  0.39162641  0.04080512  0.35510246    -0.13220
C297        C  0.37051704  0.05130259  0.38315224     0.00430
C298        C  0.33992280  0.03326080  0.39019585    -0.11740
C299        C  0.33363198  0.00096581  0.37512824     0.02930
C300        C  0.35522503  0.98954599  0.34751924    -0.11160
H301        H  0.41590194  0.05434141  0.35004671     0.08520
H302        H  0.32435038  0.04095747  0.41245949     0.06050
H303        H  0.35130314  0.96402478  0.33653007     0.05900
C304        C  0.37481147  0.34517040  0.02484679     0.02930
C305        C  0.33882494  0.34530454  0.01853334    -0.13220
C306        C  0.31903806  0.37506490  0.02697061     0.00430
C307        C  0.33592931  0.40516474  0.03833384    -0.11740
C308        C  0.37175085  0.40720551  0.03552190     0.02930
C309        C  0.38989029  0.37621565  0.03709609    -0.11160
H310        H  0.32678286  0.32409479  0.00500284     0.08520
H311        H  0.32175336  0.42937707  0.03933154     0.06050
H312        H  0.41754031  0.37790568  0.04030013     0.05900
C313        C  0.01913094  0.17272683  0.47888762    -0.09350
C314        C  0.02227060  0.20855555  0.48597386     0.06850
C315        C  0.05654683  0.22295450  0.48161496    -0.03120
C316        C  0.08549100  0.20098564  0.47846137    -0.07570
C317        C  0.08165559  0.16482702  0.47686363     0.05960
C318        C  0.04796042  0.15201872  0.47162416    -0.02590
Br319      Br  0.03955658  0.10531927  0.45750469    -0.02290
H320        H  0.99414504  0.16030981  0.47765459     0.09870
H321        H  0.11107566  0.21198067  0.48158354     0.07890
Br322      Br  0.06762347  0.27154460  0.48564370    -0.02720
C323        C  0.92561369  0.22115906  0.47589985    -0.09350
C324        C  0.95395489  0.21120531  0.49652731     0.06850
C325        C  0.94706556  0.18312608  0.51977752    -0.03120
C326        C  0.91809501  0.16174968  0.51537960    -0.07570
C327        C  0.89591924  0.16697986  0.48784671     0.05960
C328        C  0.89793218  0.19851232  0.47013275    -0.02590
Br329      Br  0.86578958  0.20960536  0.43510422    -0.02290
H330        H  0.92578869  0.24529535  0.46165327     0.09870
H331        H  0.91548674  0.13816682  0.53060125     0.07890
Br332      Br  0.97670138  0.16894006  0.55576211    -0.02720
C333        C  0.96571071  0.27642895  0.53736983    -0.09350
C334        C  0.99207234  0.25198914  0.52919411     0.06850
C335        C  0.01870373  0.24907716  0.55419413    -0.03120
C336        C  0.02223302  0.27453199  0.57952979    -0.07570
C337        C  0.99971778  0.30257931  0.58256188     0.05960
C338        C  0.96994420  0.30230479  0.56258780    -0.02590
Br339      Br  0.93645445  0.33861084  0.56557184    -0.02290
H340        H  0.94339876  0.27808036  0.52119330     0.09870
H341        H  0.04378489  0.27303333  0.59680438     0.07890
Br342      Br  0.05123687  0.21209911  0.56011700    -0.02720
C343        C  0.99112228  0.29245684  0.46433428    -0.09350
C344        C  0.98878258  0.25586705  0.46143648     0.06850
C345        C  0.98617293  0.24214277  0.42698794    -0.03120
C346        C  0.98962090  0.26392707  0.39827852    -0.07570
C347        C  0.99380170  0.29947048  0.40225523     0.05960
C348        C  0.99228506  0.31396061  0.43545883    -0.02590
Br349      Br  0.99628502  0.36320768  0.44278866    -0.02290
H350        H  0.99466689  0.30529922  0.48860671     0.09870
H351        H  0.99088846  0.25284875  0.37256869     0.07890
Br352      Br  0.97775747  0.19440796  0.41487821    -0.02720
C353        C  0.06821958  0.02803372  0.55969884    -0.09350
C354        C  0.05324213  0.02727575  0.59274539     0.06850
C355        C  0.05747325  0.05654658  0.61473341    -0.03120
C356        C  0.07669464  0.08541340  0.60300991    -0.07570
C357        C  0.09003783  0.08646158  0.56922095     0.05960
C358        C  0.08483696  0.05756505  0.54733177    -0.02590
Br359      Br  0.09642332  0.05655178  0.49922675    -0.02290
H360        H  0.06434000  0.00664031  0.54202686     0.09870
H361        H  0.07988592  0.10767957  0.61971627     0.07890
Br362      Br  0.03633444  0.06060159  0.65998425    -0.02720
C363        C  0.04860553  0.87421069  0.67109044    -0.09350
C364        C  0.04431364  0.91037389  0.67212126     0.06850
C365        C  0.07399824  0.93014822  0.66325109    -0.03120
C366        C  0.09734768  0.91713286  0.63814547    -0.07570
C367        C  0.09464987  0.88228044  0.62736365     0.05960
C368        C  0.07329119  0.85986161  0.64804731    -0.02590
Br369      Br  0.07531030  0.81014432  0.64479079    -0.02290
H370        H  0.02865077  0.85745153  0.68224849     0.09870
H371        H  0.11505455  0.93507374  0.62522333     0.07890
Br372      Br  0.07639131  0.97827073  0.67488969    -0.02720
C373        C  0.93395500  0.99664781  0.49454020    -0.09350
C374        C  0.94377422  0.01070783  0.52638317     0.06850
C375        C  0.95325965  0.04603799  0.52773777    -0.03120
C376        C  0.94739130  0.06747539  0.49968502    -0.07570
C377        C  0.93016247  0.05477170  0.47077192     0.05960
C378        C  0.92791117  0.01846190  0.46641457    -0.02590
Br379      Br  0.91327635  0.99839837  0.42375356    -0.02290
H380        H  0.93001380  0.96891458  0.49185216     0.09870
H381        H  0.95237015  0.09493536  0.50278015     0.07890
Br382      Br  0.97428613  0.06709951  0.56685557    -0.02720
C383        C  0.86185731  0.90272109  0.61722160    -0.09350
C384        C  0.89469786  0.88817292  0.61961718     0.06850
C385        C  0.89726563  0.85260120  0.62700726    -0.03120
C386        C  0.86787820  0.83134242  0.62461949    -0.07570
C387        C  0.83750516  0.84488352  0.61043172     0.05960
C388        C  0.83284192  0.88121484  0.61475560    -0.02590
Br389      Br  0.78848903  0.90313957  0.61882469    -0.02290
H390        H  0.85885060  0.93066356  0.61622645     0.09870
H391        H  0.87081269  0.80359265  0.62771733     0.07890
Br392      Br  0.94010817  0.83244410  0.63999904    -0.02720
C393        C  0.20979101  0.02802592  0.52647163    -0.09350
C394        C  0.22691983  0.02384445  0.49424779     0.06850
C395        C  0.22462170  0.05308942  0.47118122    -0.03120
C396        C  0.20283438  0.08168280  0.47975325    -0.07570
C397        C  0.18316912  0.08334620  0.51094416     0.05960
C398        C  0.18787633  0.05524091  0.53472051    -0.02590
Br399      Br  0.16342392  0.04480383  0.57786426    -0.02290
H400        H  0.21065458  0.00720736  0.54514007     0.09870
H401        H  0.20116538  0.10287682  0.46148538     0.07890
Br402      Br  0.25017333  0.05965156  0.42855351    -0.02720
C403        C  0.22859606  0.92274257  0.50197420    -0.09350
C404        C  0.21711449  0.95702179  0.49528745     0.06850
C405        C  0.18024387  0.96147887  0.49627959    -0.03120
C406        C  0.15844068  0.93607968  0.51086944    -0.07570
C407        C  0.17107119  0.90465813  0.52262387     0.05960
C408        C  0.20618843  0.89717647  0.51650610    -0.02590
Br409      Br  0.22478860  0.85333734  0.52967734    -0.02290
H410        H  0.25584852  0.91690296  0.49937180     0.09870
H411        H  0.13089443  0.94090209  0.51315816     0.07890
Br412      Br  0.15456680  0.99837157  0.47620484    -0.02720
C413        C  0.26426133  0.96899734  0.55340848    -0.09350
C414        C  0.27103645  0.98775210  0.52196232     0.06850
C415        C  0.29989438  0.01120471  0.52256772    -0.03120
C416        C  0.32021199  0.01437723  0.55179793    -0.07570
C417        C  0.31197078  0.99704614  0.58275048     0.05960
C418        C  0.28398652  0.97371458  0.58319192    -0.02590
Br419      Br  0.26956494  0.95043172  0.62497994    -0.02290
H420        H  0.24155088  0.95290757  0.55681955     0.09870
H421        H  0.34153756  0.03281359  0.55118677     0.07890
Br422      Br  0.31280444  0.04286804  0.48622346    -0.02720
C423        C  0.29966335  0.96537511  0.45657032    -0.09350
C424        C  0.26552070  0.97860077  0.45551946     0.06850
C425        C  0.25191537  0.98022796  0.42154671    -0.03120
C426        C  0.27445187  0.98211848  0.39243432    -0.07570
C427        C  0.30998642  0.97803073  0.39569417     0.05960
C428        C  0.32165259  0.96522650  0.42725742    -0.02590
Br429      Br  0.36901516  0.95258030  0.43259298    -0.02290
H430        H  0.31051476  0.95677653  0.48050278     0.09870
H431        H  0.26450163  0.98980138  0.36768747     0.07890
Br432      Br  0.20430121  0.98173697  0.41070599    -0.02720
C433        C  0.39954716  0.04847637  0.43836398    -0.09350
C434        C  0.38523654  0.06954474  0.41308178     0.06850
C435        C  0.37928107  0.10472913  0.42054213    -0.03120
C436        C  0.38896127  0.11849589  0.45257846    -0.07570
C437        C  0.40313824  0.09716880  0.47824714     0.05960
C438        C  0.40758526  0.06136174  0.47078106    -0.02590
Br439      Br  0.42480452  0.02749280  0.50253463    -0.02290
H440        H  0.40329256  0.02113769  0.43318740     0.09870
H441        H  0.38558521  0.14598157  0.45731689     0.07890
Br442      Br  0.35814172  0.13448565  0.38769274    -0.02720
C443        C  0.55446114  0.08741914  0.41628979    -0.09350
C444        C  0.55087332  0.05117200  0.41644092     0.06850
C445        C  0.53106723  0.03460682  0.44234140    -0.03120
C446        C  0.51695302  0.05410947  0.46911573    -0.07570
C447        C  0.52199247  0.09037416  0.47058994     0.05960
C448        C  0.53973732  0.10732630  0.44291578    -0.02590
Br449      Br  0.54680157  0.15668894  0.44045777    -0.02290
H450        H  0.57033681  0.10001459  0.39639596     0.09870
H451        H  0.50251520  0.04042171  0.48930082     0.07890
Br452      Br  0.52540444  0.98501247  0.44382959    -0.02720
C453        C  0.56277488  0.14988155  0.63411131    -0.09350
C454        C  0.55836725  0.15281446  0.59843353     0.06850
C455        C  0.58517251  0.14131605  0.57606764    -0.03120
C456        C  0.61006203  0.11870587  0.58844789    -0.07570
C457        C  0.60984546  0.10941906  0.62356057     0.05960
C458        C  0.58949404  0.12955580  0.64684217    -0.02590
Br459      Br  0.59466825  0.12716932  0.69601458    -0.02290
H460        H  0.54330119  0.15997271  0.65193049     0.09870
H461        H  0.62640975  0.10532134  0.56979076     0.07890
Br462      Br  0.58413961  0.14886592  0.52723808    -0.02720
C463        C  0.37144335  0.12086780  0.66310491    -0.09350
C464        C  0.35202888  0.10319510  0.63805510     0.06850
C465        C  0.34499629  0.12231697  0.60723031    -0.03120
C466        C  0.36299721  0.15344052  0.60034205    -0.07570
C467        C  0.39220305  0.16135613  0.61924284     0.05960
C468        C  0.39228303  0.14941525  0.65350027    -0.02590
Br469      Br  0.42778044  0.16423324  0.68376397    -0.02290
H470        H  0.37442927  0.10985993  0.68857647     0.09870
H471        H  0.36054877  0.16525500  0.57507385     0.07890
Br472      Br  0.31750588  0.10725067  0.56932056    -0.02720
C473        C  0.13593124  0.57081201  0.40722506    -0.09350
C474        C  0.11418396  0.55850497  0.43448584     0.06850
C475        C  0.08047022  0.57258103  0.43837766    -0.03120
C476        C  0.07015371  0.59873424  0.41671039    -0.07570
C477        C  0.09092488  0.60998472  0.38881138     0.05960
C478        C  0.12396215  0.59562615  0.38364330    -0.02590
Br479      Br  0.15239197  0.60821674  0.34429944    -0.02290
H480        H  0.16151398  0.56008484  0.40335773     0.09870
H481        H  0.04404137  0.60847748  0.41996128     0.07890
Br482      Br  0.04441442  0.55669790  0.47012030    -0.02720
C483        C  0.13511204  0.41029920  0.40375212    -0.09350
C484        C  0.12758273  0.40598562  0.43918250     0.06850
C485        C  0.10651883  0.37808848  0.45031001    -0.03120
C486        C  0.08949254  0.35822565  0.42626345    -0.07570
C487        C  0.09241159  0.36573240  0.39067207     0.05960
C488        C  0.11780330  0.39011056  0.37934493    -0.02590
Br489      Br  0.12912183  0.39739775  0.33130634    -0.02290
H490        H  0.15202473  0.43124595  0.39496904     0.09870
H491        H  0.07092730  0.33943096  0.43630265     0.07890
Br492      Br  0.09577753  0.36888852  0.49826010    -0.02720
C493        C  0.11577318  0.62383540  0.57818764    -0.09350
C494        C  0.10697562  0.61534095  0.61278911     0.06850
C495        C  0.12716661  0.58967078  0.62865963    -0.03120
C496        C  0.14495824  0.56550938  0.60795135    -0.07570
C497        C  0.14582891  0.56932595  0.57194834     0.05960
C498        C  0.13465548  0.60067312  0.55762220    -0.02590
Br499      Br  0.13839264  0.60960334  0.50890420    -0.02290
H500        H  0.10385158  0.64532376  0.56523749     0.09870
H501        H  0.15540611  0.54242294  0.61966179     0.07890
Br502      Br  0.12946804  0.58567793  0.67791077    -0.02720
C503        C  0.13754950  0.43063580  0.61575988    -0.09350
C504        C  0.15342780  0.41720552  0.58591675     0.06850
C505        C  0.14798832  0.38192413  0.57894021    -0.03120
C506        C  0.11968315  0.36436525  0.59455912    -0.07570
C507        C  0.09626250  0.38204153  0.61692573     0.05960
C508        C  0.10714869  0.41531520  0.62919397    -0.02590
Br509      Br  0.08053164  0.44643277  0.65783296    -0.02290
H510        H  0.14306511  0.45740192  0.62255713     0.09870
H511        H  0.11470314  0.33782008  0.58693816     0.07890
Br512      Br  0.17534464  0.35920849  0.54395986    -0.02720
C513        C  0.49449082  0.04695505  0.22969841    -0.09350
C514        C  0.49823762  0.01454943  0.21218418     0.06850
C515        C  0.50202019  0.01637659  0.17523788    -0.03120
C516        C  0.50555216  0.04873828  0.15872108    -0.07570
C517        C  0.50652201  0.07995614  0.17714384     0.05960
C518        C  0.49942226  0.07903702  0.21277435    -0.02590
Br519      Br  0.50045728  0.12063056  0.23978484    -0.02290
H520        H  0.49095696  0.04737078  0.25752387     0.09870
H521        H  0.51106874  0.04942985  0.13111327     0.07890
Br522      Br  0.50599956  0.97838346  0.14330044    -0.02720
C523        C  0.47189356  0.92764892  0.20184354    -0.09350
C524        C  0.50145428  0.94552950  0.21427775     0.06850
C525        C  0.53374829  0.92843279  0.20684584    -0.03120
C526        C  0.53442226  0.89516683  0.19340561    -0.07570
C527        C  0.50771246  0.88335290  0.17287525     0.05960
C528        C  0.47510816  0.89914964  0.17854303    -0.02590
Br529      Br  0.43490365  0.88527533  0.15422532    -0.02290
H530        H  0.44638540  0.93676421  0.20779980     0.09870
H531        H  0.55903616  0.88196107  0.19230139     0.07890
Br532      Br  0.57949405  0.94873969  0.20448434    -0.02720
C533        C  0.40444688  0.99695166  0.27519269    -0.09350
C534        C  0.41020006  0.99699452  0.31084776     0.06850
C535        C  0.44332014  0.98935472  0.32177503    -0.03120
C536        C  0.47021323  0.98448460  0.29781039    -0.07570
C537        C  0.46606490  0.98317783  0.26120280     0.05960
C538        C  0.43147432  0.99052449  0.25053404    -0.02590
Br539      Br  0.41892985  0.99921481  0.20347454    -0.02290
H540        H  0.37914605  0.00407871  0.26633354     0.09870
H541        H  0.49471627  0.98478318  0.30987078     0.07890
Br542      Br  0.45427074  0.98720957  0.36999912    -0.02720
C543        C  0.53758109  0.95281779  0.28031324    -0.09350
C544        C  0.53258962  0.98149208  0.25766614     0.06850
C545        C  0.55906103  0.00776305  0.25759366    -0.03120
C546        C  0.58143899  0.00986834  0.28496642    -0.07570
C547        C  0.58013781  0.98532374  0.31125351     0.05960
C548        C  0.56015252  0.95523289  0.30768149    -0.02590
Br549      Br  0.55866110  0.91988247  0.34263227    -0.02290
H550        H  0.52022980  0.93062565  0.27972566     0.09870
H551        H  0.59902627  0.03183176  0.28667896     0.07890
Br552      Br  0.57428573  0.03612359  0.21945224    -0.02720
C553        C  0.65787745  0.08688238  0.07400520    -0.09350
C554        C  0.65524438  0.05107292  0.08007312     0.06850
C555        C  0.63756368  0.03963664  0.11019752    -0.03120
C556        C  0.61525043  0.06210332  0.12773323    -0.07570
C557        C  0.61231532  0.09718320  0.11764695     0.05960
C558        C  0.63734193  0.11014706  0.09334878    -0.02590
Br559      Br  0.64507167  0.15864303  0.08528252    -0.02290
H560        H  0.67278590  0.09643652  0.05184401     0.09870
H561        H  0.59760468  0.05051051  0.14655179     0.07890
Br562      Br  0.63582230  0.99131826  0.12261568    -0.02720
C563        C  0.60800418  0.09713834  0.94614534    -0.09350
C564        C  0.62496072  0.06850172  0.93202269     0.06850
C565        C  0.62182057  0.06137691  0.89669160    -0.03120
C566        C  0.59795178  0.07987282  0.87740213    -0.07570
C567        C  0.57574159  0.10437301  0.89329635     0.05960
C568        C  0.58308792  0.11476616  0.92778064    -0.02590
Br569      Br  0.55798729  0.14786107  0.95565131    -0.02290
H570        H  0.61073790  0.10277029  0.97338923     0.09870
H571        H  0.59449725  0.07253856  0.85072966     0.07890
Br572      Br  0.64479852  0.02265511  0.87539834    -0.02720
C573        C  0.64936262  0.89827273  0.08968867    -0.09350
C574        C  0.64875953  0.89815224  0.05357358     0.06850
C575        C  0.63233949  0.87037482  0.03699801    -0.03120
C576        C  0.60938386  0.84909912  0.05571550    -0.07570
C577        C  0.60426866  0.85391829  0.09144278     0.05960
C578        C  0.62805728  0.87534646  0.10882531    -0.02590
Br579      Br  0.63083066  0.87592479  0.15822531    -0.02290
H580        H  0.66339701  0.91845651  0.10294210     0.09870
H581        H  0.59286667  0.83187928  0.04139022     0.07890
Br582      Br  0.63474649  0.86518965  0.98785485    -0.02720
C583        C  0.57946216  0.91360103  0.92021654    -0.09350
C584        C  0.61531260  0.91974881  0.92006656     0.06850
C585        C  0.63683897  0.89891717  0.89855277    -0.03120
C586        C  0.62200952  0.87239822  0.87849848    -0.07570
C587        C  0.58625153  0.86572735  0.88058055     0.05960
C588        C  0.56510161  0.88672200  0.90193909    -0.02590
Br589      Br  0.51587201  0.88064480  0.90833978    -0.02290
H590        H  0.56182234  0.92902611  0.93587859     0.09870
H591        H  0.63835590  0.85672734  0.86171862     0.07890
Br592      Br  0.68607272  0.90464736  0.89581811    -0.02720
C593        C  0.52577050  0.21527752  0.04008994    -0.09350
C594        C  0.49090761  0.21803297  0.02873960     0.06850
C595        C  0.46711491  0.19581059  0.04870611    -0.03120
C596        C  0.47909241  0.17393372  0.07547452    -0.07570
C597        C  0.51337570  0.17500657  0.08623063     0.05960
C598        C  0.53500720  0.19978809  0.07061018    -0.02590
Br599      Br  0.57681057  0.21646133  0.09082929    -0.02290
H600        H  0.54800162  0.22511803  0.02592365     0.09870
H601        H  0.46157697  0.15496906  0.08713513     0.07890
Br602      Br  0.42003060  0.18432925  0.03940914    -0.02720
C603        C  0.47027625  0.20399454  0.90044521    -0.09350
C604        C  0.47259984  0.16846003  0.90614940     0.06850
C605        C  0.47089651  0.15620321  0.94021655    -0.03120
C606        C  0.47392060  0.17937288  0.96763517    -0.07570
C607        C  0.47517360  0.21595492  0.96285748     0.05960
C608        C  0.46971146  0.22755996  0.92807493    -0.02590
Br609      Br  0.46450621  0.27436587  0.91312282    -0.02290
H610        H  0.47113505  0.21361425  0.87409849     0.09870
H611        H  0.47761963  0.16725634  0.99218205     0.07890
Br612      Br  0.47058894  0.10726598  0.95036097    -0.02720
C613        C  0.54146709  0.25309251  0.95836900    -0.09350
C614        C  0.51909344  0.26105079  0.98679487     0.06850
C615        C  0.53242517  0.28477153  0.01213881    -0.03120
C616        C  0.56455261  0.30106303  0.00687519    -0.07570
C617        C  0.58436264  0.29536745  0.97683692     0.05960
C618        C  0.57313873  0.27042304  0.95306423    -0.02590
Br619      Br  0.59997952  0.26031931  0.91200757    -0.02290
H620        H  0.53496826  0.23338534  0.93985689     0.09870
H621        H  0.57279371  0.32055878  0.02512071     0.07890
Br622      Br  0.50835494  0.29676654  0.05481048    -0.02720
C623        C  0.41998709  0.25851550  0.00315822    -0.09350
C624        C  0.45449651  0.26940429  0.99689147     0.06850
C625        C  0.45800009  0.30635905  0.98973067    -0.03120
C626        C  0.43051145  0.32863933  0.99669569    -0.07570
C627        C  0.39922642  0.31745900  0.01203564     0.05960
C628        C  0.39337821  0.28135077  0.01355340    -0.02590
Br629      Br  0.35056212  0.26102415  0.02975219    -0.02290
H630        H  0.41283383  0.23253743  0.99717571     0.09870
H631        H  0.43378047  0.35579604  0.98989138     0.07890
Br632      Br  0.49479658  0.33254602  0.96587811    -0.02720
C633        C  0.43181633  0.47295159  0.99069375    -0.09350
C634        C  0.41640794  0.47566253  0.95815648     0.06850
C635        C  0.38545749  0.45765113  0.95249236    -0.03120
C636        C  0.37088416  0.43713169  0.97875905    -0.07570
C637        C  0.38628489  0.43382525  0.01120140     0.05960
C638        C  0.41716312  0.45204561  0.01701503    -0.02590
Br639      Br  0.44013831  0.44903419  0.06016229    -0.02290
H640        H  0.45579038  0.48661936  0.99547454     0.09870
H641        H  0.34759292  0.42287326  0.97325054     0.07890
Br642      Br  0.36062697  0.46174178  0.91044609    -0.02720
C643        C  0.35745279  0.57741492  0.86120141    -0.09350
C644        C  0.39018215  0.59328362  0.86270549     0.06850
C645        C  0.39181662  0.62979559  0.86381769    -0.03120
C646        C  0.36180886  0.64830918  0.87251021    -0.07570
C647        C  0.33252976  0.62976889  0.88521034     0.05960
C648        C  0.32806730  0.59706837  0.86955352    -0.02590
Br649      Br  0.28327270  0.58086823  0.85718425    -0.02290
H650        H  0.35482252  0.55009367  0.85512206     0.09870
H651        H  0.36373869  0.67613361  0.87588799     0.07890
Br652      Br  0.43393243  0.65473529  0.85412320    -0.02720
C653        C  0.57601597  0.54616055  0.83796458    -0.09350
C654        C  0.55153221  0.57110712  0.82917669     0.06850
C655        C  0.56145895  0.60613450  0.83190082    -0.03120
C656        C  0.58825963  0.61523955  0.85386512    -0.07570
C657        C  0.60497141  0.58946062  0.87316239     0.05960
C658        C  0.60094384  0.55437321  0.86239598    -0.02590
Br659      Br  0.62191403  0.51523306  0.88427556    -0.02290
H660        H  0.57008014  0.51894357  0.83374630     0.09870
H661        H  0.59234203  0.64244466  0.85967865     0.07890
Br662      Br  0.53191833  0.64185135  0.81543931    -0.02720
C663        C  0.56128060  0.44020195  0.88337645    -0.09350
C664        C  0.54900116  0.46299599  0.90934134     0.06850
C665        C  0.55979079  0.45835791  0.94349949    -0.03120
C666        C  0.58143415  0.43083161  0.95108553    -0.07570
C667        C  0.59374857  0.40837529  0.92522900     0.05960
C668        C  0.58343782  0.41294504  0.89115043    -0.02590
Br669      Br  0.59765727  0.38163854  0.85515098    -0.02290
H670        H  0.55305420  0.44314710  0.85701345     0.09870
H671        H  0.58743511  0.42583306  0.97776880     0.07890
Br672      Br  0.54362672  0.48606539  0.98172978    -0.02720
C673        C  0.07696510  0.52189040  0.21961003    -0.09350
C674        C  0.07352968  0.51192376  0.18552067     0.06850
C675        C  0.04588286  0.49017051  0.17684105    -0.03120
C676        C  0.02044893  0.48184400  0.20186030    -0.07570
C677        C  0.02060723  0.49579759  0.23599992     0.05960
C678        C  0.05215475  0.51324434  0.24500875    -0.02590
Br679      Br  0.07038403  0.52251824  0.28931886    -0.02290
H680        H  0.09962317  0.53690782  0.22641455     0.09870
H681        H  0.99894880  0.46591407  0.19380368     0.07890
Br682      Br  0.03885884  0.47484228  0.13041828    -0.02720
C683        C  0.92430252  0.47562254  0.23539147    -0.09350
C684        C  0.95457691  0.49698249  0.23338197     0.06850
C685        C  0.95520245  0.52264924  0.20639966    -0.03120
C686        C  0.92747769  0.52599042  0.18468777    -0.07570
C687        C  0.89577137  0.50863786  0.19062007     0.05960
C688        C  0.89471765  0.48244830  0.21601390    -0.02590
Br689      Br  0.85334562  0.45675368  0.22747091    -0.02290
H690        H  0.92228555  0.45394516  0.25283377     0.09870
H691        H  0.93028132  0.54469915  0.16389791     0.07890
Br692      Br  0.99041552  0.55811235  0.19797558    -0.02720
C693        C  0.96824980  0.41477531  0.32257601    -0.09350
C694        C  0.99597589  0.39328259  0.31311826     0.06850
C695        C  0.01310320  0.39870133  0.28142396    -0.03120
C696        C  0.00756398  0.42893443  0.26313126    -0.07570
C697        C  0.98438634  0.45492772  0.27520869     0.05960
C698        C  0.96162334  0.44513120  0.30351062    -0.02590
Br699      Br  0.92491280  0.47396042  0.32170728    -0.02290
H700        H  0.95391959  0.40986715  0.34652549     0.09870
H701        H  0.02355703  0.43173195  0.24027460     0.07890
Br702      Br  0.04686837  0.36663185  0.26328952    -0.02720
C703        C  0.96877843  0.55418116  0.27952668    -0.09350
C704        C  0.98421544  0.52170762  0.28734178     0.06850
C705        C  0.99931534  0.52004450  0.32092518    -0.03120
C706        C  0.00581150  0.55084271  0.33899522    -0.07570
C707        C  0.99899950  0.58342126  0.32469483     0.05960
C708        C  0.97775069  0.58491724  0.29627218    -0.02590
Br709      Br  0.96315806  0.62816618  0.27700401    -0.02290
H710        H  0.95089409  0.55719006  0.25911607     0.09870
H711        H  0.02012753  0.54958119  0.36266838     0.07890
Br712      Br  0.01868746  0.48008696  0.34362765    -0.02720
C713        C  0.10808373  0.65759064  0.06846249    -0.09350
C714        C  0.07250257  0.66351752  0.07211689     0.06850
C715        C  0.05559053  0.65366025  0.10317455    -0.03120
C716        C  0.07097937  0.62940865  0.12453414    -0.07570
C717        C  0.10440076  0.61691758  0.11656880     0.05960
C718        C  0.12460564  0.63576463  0.09174343    -0.02590
Br719      Br  0.17403242  0.63178295  0.08760468    -0.02290
H720        H  0.12217316  0.66687036  0.04568030     0.09870
H721        H  0.05477481  0.61772839  0.14456510     0.07890
Br722      Br  0.00826968  0.66546303  0.11286399    -0.02720
C723        C  0.10496757  0.65421715  0.91561559    -0.09350
C724        C  0.07015480  0.66299427  0.91165123     0.06850
C725        C  0.05335654  0.64898906  0.88319680    -0.03120
C726        C  0.06516579  0.61775919  0.86914254    -0.07570
C727        C  0.09663949  0.60318614  0.87956628     0.05960
C728        C  0.11861581  0.62456312  0.89934825    -0.02590
Br729      Br  0.16683968  0.61519076  0.90520197    -0.02290
H730        H  0.11979085  0.66700427  0.93530981     0.09870
H731        H  0.04770370  0.60382114  0.85276722     0.07890
Br732      Br  0.00808196  0.66432428  0.87173616    -0.02720
C733        C  0.93424720  0.58439912  0.07614889    -0.09350
C734        C  0.93378863  0.62043300  0.07026499     0.06850
C735        C  0.90666895  0.64000511  0.08570617    -0.03120
C736        C  0.88051108  0.62291955  0.10552874    -0.07570
C737        C  0.88051792  0.58657853  0.10899891     0.05960
C738        C  0.90766851  0.56745384  0.09367517    -0.02590
Br739      Br  0.91004369  0.51753167  0.09392954    -0.02290
H740        H  0.95455548  0.56827536  0.06525213     0.09870
H741        H  0.86004051  0.63785272  0.11779814     0.07890
Br742      Br  0.90383709  0.68946300  0.08106990    -0.02720
C743        C  0.87491498  0.58500885  0.92998048    -0.09350
C744        C  0.86875874  0.59557111  0.89594336     0.06850
C745        C  0.88793952  0.62427932  0.88250248    -0.03120
C746        C  0.91495376  0.63881713  0.90164506    -0.07570
C747        C  0.92340955  0.62464641  0.93378242     0.05960
C748        C  0.90204748  0.59853754  0.94837576    -0.02590
Br749      Br  0.90928158  0.57839050  0.99287942    -0.02290
H750        H  0.86057726  0.56377216  0.94174497     0.09870
H751        H  0.93026586  0.65996981  0.89072954     0.07890
Br752      Br  0.87820265  0.64454657  0.83858387    -0.02720
C753        C  0.16192587  0.48437110  0.02500650    -0.09350
C754        C  0.19837169  0.48136334  0.02781711     0.06850
C755        C  0.21175193  0.48699301  0.06169426    -0.03120
C756        C  0.19006951  0.49789299  0.08893486    -0.07570
C757        C  0.15498651  0.50306857  0.08416923     0.05960
C758        C  0.14067761  0.49491783  0.05251594    -0.02590
Br759      Br  0.09243763  0.50177117  0.04440033    -0.02290
H760        H  0.14898505  0.48262144  0.00120672     0.09870
H761        H  0.20102691  0.50421317  0.11362283     0.07890
Br762      Br  0.25942818  0.48206420  0.07393518    -0.02720
C763        C  0.18676673  0.50854267  0.90884355    -0.09350
C764        C  0.15466469  0.49206066  0.91008439     0.06850
C765        C  0.15029181  0.46233646  0.93105649    -0.03120
C766        C  0.17622186  0.45355775  0.95437369    -0.07570
C767        C  0.20417971  0.47665277  0.96003118     0.05960
C768        C  0.21187656  0.50070643  0.93242837    -0.02590
Br769      Br  0.25570059  0.52222577  0.92049888    -0.02290
H770        H  0.19186811  0.52887242  0.88990482     0.09870
H771        H  0.17151267  0.43206152  0.97203320     0.07890
Br772      Br  0.10799892  0.43618723  0.93248296    -0.02720
C773        C  0.28479918  0.50472872  0.99761693    -0.09350
C774        C  0.24829293  0.50792695  0.99691674     0.06850
C775        C  0.23496287  0.54280430  0.99730928    -0.03120
C776        C  0.25715751  0.57148706  0.99492096    -0.07570
C777        C  0.29279284  0.56766087  0.99181057     0.05960
C778        C  0.30672143  0.53422924  0.99530262    -0.02590
Br779      Br  0.35561246  0.52820694  0.99551450    -0.02290
H780        H  0.29660678  0.47945052  0.99893570     0.09870
H781        H  0.24627623  0.59718963  0.99226933     0.07890
Br782      Br  0.18703543  0.55552522  0.99480447    -0.02720
C783        C  0.23483074  0.41720574  0.02799665    -0.09350
C784        C  0.24099562  0.43870632  0.99836945     0.06850
C785        C  0.26317982  0.42360773  0.97235179    -0.03120
C786        C  0.28354355  0.39475482  0.98000159    -0.07570
C787        C  0.28429273  0.38140891  0.01347704     0.05960
C788        C  0.25736070  0.39037382  0.03644093    -0.02590
Br789      Br  0.25385984  0.36995928  0.08158544    -0.02290
H790        H  0.21443865  0.42238688  0.04671006     0.09870
H791        H  0.30240529  0.38577002  0.96092758     0.07890
Br792      Br  0.26790019  0.43795853  0.92528007    -0.02720
C793        C  0.01954240  0.80544978  0.49052064    -0.09350
C794        C  0.02179686  0.76941393  0.49893194     0.06850
C795        C  0.05532440  0.75856160  0.50949203    -0.03120
C796        C  0.07930334  0.78305944  0.52115715    -0.07570
C797        C  0.07342910  0.81857778  0.51840057     0.05960
C798        C  0.04431518  0.82977366  0.50093670    -0.02590
Br799      Br  0.03623065  0.87815357  0.49288915    -0.02290
H800        H  0.99730211  0.81535686  0.47745952     0.09870
H801        H  0.10338247  0.77433167  0.53177772     0.07890
Br802      Br  0.07665380  0.71466592  0.50040716    -0.02720
C803        C  0.92853735  0.76719189  0.47493217    -0.09350
C804        C  0.95554589  0.76853407  0.49915515     0.06850
C805        C  0.95122875  0.79265964  0.52702082    -0.03120
C806        C  0.92041987  0.81095382  0.53126877    -0.07570
C807        C  0.89196595  0.80431306  0.51049758     0.05960
C808        C  0.89672171  0.78350904  0.48114423    -0.02590
Br809      Br  0.85975966  0.77372900  0.45052939    -0.02290
H810        H  0.93060174  0.75187280  0.45174920     0.09870
H811        H  0.91739768  0.82794462  0.55340854     0.07890
Br812      Br  0.98318738  0.79867817  0.56411866    -0.02720
C813        C  0.01208285  0.74250368  0.43183024    -0.09350
C814        C  0.99010713  0.72831194  0.45826116     0.06850
C815        C  0.97056026  0.69811025  0.44929015    -0.03120
C816        C  0.97901342  0.67968042  0.41909190    -0.07570
C817        C  0.00493742  0.69161993  0.39591911     0.05960
C818        C  0.01924630  0.72473554  0.40114645    -0.02590
Br819      Br  0.05005456  0.74624510  0.36760731    -0.02290
H820        H  0.02491367  0.76721851  0.43475037     0.09870
H821        H  0.96668507  0.65474980  0.41492324     0.07890
Br822      Br  0.93292940  0.67906327  0.47703460    -0.02720
C823        C  0.00689601  0.68505484  0.51808742    -0.09350
C824        C  0.98756257  0.71553569  0.52410250     0.06850
C825        C  0.96729137  0.71470920  0.55595990    -0.03120
C826        C  0.97703283  0.69305938  0.58343974    -0.07570
C827        C  0.00153552  0.66713503  0.57804689     0.05960
C828        C  0.01366259  0.66128276  0.54417298    -0.02590
Br829      Br  0.03963333  0.62081297  0.53216791    -0.02290
H830        H  0.01772696  0.67940919  0.49277872     0.09870
H831        H  0.96378208  0.69483536  0.60837125     0.07890
Br832      Br  0.91973119  0.72844507  0.56113389    -0.02720
C833        C  0.76526308  0.04013314  0.51184645    -0.09350
C834        C  0.76064111  0.01279367  0.48761853     0.06850
C835        C  0.77925384  0.01658500  0.45530179    -0.03120
C836        C  0.79919975  0.04599120  0.44820077    -0.07570
C837        C  0.80757278  0.06954428  0.47412121     0.05960
C838        C  0.78995527  0.06671782  0.50625046    -0.02590
Br839      Br  0.80062590  0.09617726  0.54445840    -0.02290
H840        H  0.75082042  0.04124605  0.53587548     0.09870
H841        H  0.81270304  0.04774921  0.42333501     0.07890
Br842      Br  0.78191031  0.98235868  0.41920112    -0.02720
C843        C  0.78884337  0.94533067  0.49668203    -0.09350
C844        C  0.75211019  0.94667041  0.49762398     0.06850
C845        C  0.73457176  0.91495424  0.50678933    -0.03120
C846        C  0.75305966  0.88419533  0.51138924    -0.07570
C847        C  0.78919034  0.88359551  0.50927853     0.05960
C848        C  0.80706387  0.91479133  0.50218942    -0.02590
Br849      Br  0.85656684  0.91891969  0.50420509    -0.02290
H850        H  0.80465793  0.96824158  0.49311868     0.09870
H851        H  0.73908238  0.86061133  0.51842928     0.07890
Br852      Br  0.68550172  0.90963317  0.51334307    -0.02720
C853        C  0.69947211  0.01970695  0.45307976    -0.09350
C854        C  0.71079446  0.98543826  0.46026212     0.06850
C855        C  0.70237860  0.95922899  0.43531475    -0.03120
C856        C  0.67819972  0.96668094  0.41001912    -0.07570
C857        C  0.66543497  0.00025510  0.40600054     0.05960
C858        C  0.67993181  0.02743189  0.42485717    -0.02590
Br859      Br  0.67116815  0.07561817  0.41527248    -0.02290
H860        H  0.70571704  0.04114609  0.46991297     0.09870
H861        H  0.66850027  0.94586951  0.39407752     0.07890
Br862      Br  0.72263653  0.91406968  0.42945189    -0.02720
C863        C  0.72631934  0.98711155  0.55930419    -0.09350
C864        C  0.70987233  0.98773969  0.52686255     0.06850
C865        C  0.67281698  0.99210403  0.52845650    -0.03120
C866        C  0.65609573  0.00105226  0.55951715    -0.07570
C867        C  0.67371923  0.00456999  0.59014489     0.05960
C868        C  0.70893563  0.99639348  0.59032204    -0.02590
Br869      Br  0.73443315  0.99933544  0.63190714    -0.02290
H870        H  0.75369658  0.98167300  0.56016483     0.09870
H871        H  0.62853334  0.00602010  0.55980948     0.07890
Br872      Br  0.63936174  0.98278938  0.49340369    -0.02720
C873        C  0.46941723  0.00431050  0.81247595    -0.09350
C874        C  0.47604449  0.01099641  0.77678587     0.06850
C875        C  0.47089153  0.04629441  0.76622163    -0.03120
C876        C  0.46956792  0.07299522  0.79110676    -0.07570
C877        C  0.47326518  0.06552845  0.82620868     0.05960
C878        C  0.46997395  0.03091608  0.83698918    -0.02590
Br879      Br  0.46954757  0.01868832  0.88504825    -0.02290
H880        H  0.46634385  0.97825817  0.82235767     0.09870
H881        H  0.47060862  0.09981301  0.78257320     0.07890
Br882      Br  0.47302297  0.06242902  0.71924084    -0.02720
C883        C  0.47783502  0.91332595  0.76026521    -0.09350
C884        C  0.49312118  0.94533890  0.77091617     0.06850
C885        C  0.51564763  0.94265727  0.79943187    -0.03120
C886        C  0.51784071  0.91218604  0.81833292    -0.07570
C887        C  0.50491007  0.88038033  0.80673606     0.05960
C888        C  0.48426017  0.88120381  0.77727769    -0.02590
Br889      Br  0.46590526  0.83921229  0.75855709    -0.02290
H890        H  0.46206776  0.91263234  0.73765963     0.09870
H891        H  0.53356583  0.91273595  0.84101447     0.07890
Br892      Br  0.54635834  0.97767837  0.81616640    -0.02720
C893        C  0.46436380  0.98783374  0.68811947    -0.09350
C894        C  0.45809084  0.97900492  0.72357640     0.06850
C895        C  0.42254041  0.97308990  0.73328914    -0.03120
C896        C  0.39589282  0.97943631  0.70989140    -0.07570
C897        C  0.40297051  0.99090353  0.67602695     0.05960
C898        C  0.43767210  0.99366757  0.66499202    -0.02590
Br899      Br  0.44993385  0.00982383  0.61928001    -0.02290
H900        H  0.48973190  0.99449392  0.67816422     0.09870
H901        H  0.36922550  0.97743315  0.71894254     0.07890
Br902      Br  0.40710420  0.95876149  0.77869830    -0.02720
C903        C  0.53592083  0.96432950  0.70743869    -0.09350
C904        C  0.52452266  0.98849877  0.73313483     0.06850
C905        C  0.54847437  0.01648637  0.73973121    -0.03120
C906        C  0.57796046  0.02110821  0.71863275    -0.07570
C907        C  0.58412839  0.00155981  0.68883799     0.05960
C908        C  0.56366749  0.97171174  0.68410790    -0.02590
Br909      Br  0.56942904  0.94256258  0.64436084    -0.02290
H910        H  0.52034002  0.94145866  0.70260373     0.09870
H911        H  0.59511632  0.04284391  0.72365483     0.07890
Br912      Br  0.54806528  0.05134627  0.77535959    -0.02720
C913        C  0.01516857  0.47159673  0.79701476    -0.09350
C914        C  0.01655357  0.48894809  0.76433307     0.06850
C915        C  0.04704593  0.50959569  0.75713058    -0.03120
C916        C  0.07370993  0.51068493  0.78065192    -0.07570
C917        C  0.06982823  0.49645044  0.81361632     0.05960
C918        C  0.04066279  0.47590488  0.82153061    -0.02590
Br919      Br  0.03266421  0.45566329  0.86636648    -0.02290
H920        H  0.99326079  0.45511691  0.80398546     0.09870
H921        H  0.09608559  0.52713352  0.77512137     0.07890
Br922      Br  0.05467714  0.54452386  0.72255135    -0.02720
C923        C  0.92278733  0.47118375  0.77125145    -0.09350
C924        C  0.95257607  0.49294872  0.76802043     0.06850
C925        C  0.95446582  0.52108000  0.79210806    -0.03120
C926        C  0.92940913  0.52499585  0.81810649    -0.07570
C927        C  0.89814750  0.50633994  0.81835399     0.05960
C928        C  0.89520351  0.47868321  0.79467618    -0.02590
Br929      Br  0.85361281  0.45168333  0.79119395    -0.02290
H930        H  0.91959501  0.44900236  0.75473001     0.09870
H931        H  0.93357017  0.54512146  0.83708375     0.07890
Br932      Br  0.98785263  0.55859609  0.79041876    -0.02720
C933        C  0.95771532  0.43992142  0.70071460    -0.09350
C934        C  0.98206927  0.44693605  0.72675061     0.06850
C935        C  0.00607560  0.41909585  0.73308995    -0.03120
C936        C  0.00210349  0.38699875  0.71685816    -0.07570
C937        C  0.98570949  0.38526936  0.68535280     0.05960
C938        C  0.96111715  0.41102179  0.67858425    -0.02590
Br939      Br  0.93496261  0.41059617  0.63731547    -0.02290
H940        H  0.93887902  0.45944326  0.69444140     0.09870
H941        H  0.02003680  0.36640587  0.72272682     0.07890
Br942      Br  0.05216536  0.42113226  0.75129575    -0.02720
C943        C  0.97163846  0.56828316  0.68339884    -0.09350
C944        C  0.99771363  0.56291457  0.65839789     0.06850
C945        C  0.01034120  0.52886948  0.65437472    -0.03120
C946        C  0.00395347  0.50403017  0.68049464    -0.07570
C947        C  0.98283329  0.51135546  0.71010726     0.05960
C948        C  0.96195170  0.54200679  0.70716299    -0.02590
Br949      Br  0.91679257  0.54936400  0.72783245    -0.02290
H950        H  0.95870640  0.59312537  0.68451136     0.09870
H951        H  0.01739711  0.47966228  0.67858866     0.07890
Br952      Br  0.03791955  0.51597250  0.61450615    -0.02720
C953        C  0.49210998  0.77865240  0.01697343    -0.09350
C954        C  0.48869221  0.74228935  0.02181192     0.06850
C955        C  0.48822633  0.73042904  0.05707286    -0.03120
C956        C  0.49341822  0.75369618  0.08445290    -0.07570
C957        C  0.49808725  0.78918160  0.07849353     0.05960
C958        C  0.49579727  0.80165344  0.04450734    -0.02590
Br959      Br  0.50245424  0.85007547  0.03375822    -0.02290
H960        H  0.49463973  0.79002683  0.99166351     0.09870
H961        H  0.49591558  0.74369447  0.11044268     0.07890
Br962      Br  0.48203427  0.68290836  0.07136480    -0.02720
C963        C  0.51596545  0.72626412  0.92816157    -0.09350
C964        C  0.49039361  0.73557311  0.95339373     0.06850
C965        C  0.46655701  0.76150536  0.94231141    -0.03120
C966        C  0.47389859  0.78187691  0.91238293    -0.07570
C967        C  0.50251448  0.77481024  0.89052884     0.05960
C968        C  0.52134096  0.74456124  0.89729763    -0.02590
Br969      Br  0.55693103  0.72823356  0.86590314    -0.02290
H970        H  0.53251673  0.70426201  0.93164048     0.09870
H971        H  0.45818921  0.80435770  0.90723428     0.07890
Br972      Br  0.42498227  0.77331020  0.96768059    -0.02720
C973        C  0.42540503  0.70190295  0.01265774    -0.09350
C974        C  0.45390052  0.69441520  0.98985050     0.06850
C975        C  0.44871090  0.66695651  0.96559032    -0.03120
C976        C  0.41776683  0.64822803  0.96573776    -0.07570
C977        C  0.38972936  0.65702037  0.98737118     0.05960
C978        C  0.39378216  0.68383796  0.01127903    -0.02590
Br979      Br  0.35596071  0.69831005  0.04063123    -0.02290
H980        H  0.42646033  0.72318811  0.03068617     0.09870
H981        H  0.41446746  0.62800478  0.94661475     0.07890
Br982      Br  0.48138103  0.65187571  0.93049153    -0.02720
C983        C  0.51812528  0.65666780  0.00093609    -0.09350
C984        C  0.52111551  0.69297627  0.99499799     0.06850
C985        C  0.55570288  0.70638081  0.99184375    -0.03120
C986        C  0.58343194  0.68373513  0.98538958    -0.07570
C987        C  0.57823232  0.64778035  0.98426483     0.05960
C988        C  0.54585787  0.63427703  0.99461712    -0.02590
Br989      Br  0.53722016  0.58516340  0.99613975    -0.02290
H990        H  0.49359174  0.64471296  0.00782150     0.09870
H991        H  0.60865109  0.69440264  0.97841068     0.07890
Br992      Br  0.56742568  0.75497447  0.99006696    -0.02720
C993        C  0.78511248  0.45768020  0.05422910    -0.09350
C994        C  0.75682434  0.47900208  0.04551395     0.06850
C995        C  0.74534350  0.50318969  0.07157153    -0.03120
C996        C  0.76576256  0.50978119  0.10005061    -0.07570
C997        C  0.79744121  0.49340361  0.10444249     0.05960
C998        C  0.80590865  0.46528121  0.08267000    -0.02590
Br999      Br  0.84798053  0.43998687  0.08715302    -0.02290
H1000       H  0.79339256  0.43738025  0.03662549     0.09870
H1001       H  0.75803376  0.53010388  0.11793412     0.07890
Br1002     Br  0.70179284  0.52743405  0.07455197    -0.02720
C1003       C  0.75357082  0.47539327  0.94400598    -0.09350
C1004       C  0.76700248  0.47963703  0.97776562     0.06850
C1005       C  0.80170113  0.49290003  0.97889750    -0.03120
C1006       C  0.82174280  0.49651079  0.94835585    -0.07570
C1007       C  0.80730664  0.49371024  0.91571546     0.05960
C1008       C  0.77291120  0.48273884  0.91373343    -0.02590
Br1009     Br  0.75054484  0.48000275  0.87025979    -0.02290
H1010       H  0.72690441  0.46734523  0.94124655     0.09870
H1011       H  0.84786057  0.50652108  0.94996388     0.07890
Br1012     Br  0.82208855  0.51780795  0.01640110    -0.02720
C1013       C  0.68498260  0.38856701  0.02516244    -0.09350
C1014       C  0.69018581  0.37265412  0.99296543     0.06850
C1015       C  0.72038182  0.38132889  0.97409945    -0.03120
C1016       C  0.73949105  0.41077153  0.98304491    -0.07570
C1017       C  0.72711839  0.43438450  0.00871997     0.05960
C1018       C  0.70377771  0.41881383  0.03377666    -0.02590
Br1019     Br  0.69122654  0.43842082  0.07772371    -0.02290
H1020       H  0.66306599  0.38068721  0.04140463     0.09870
H1021       H  0.76269726  0.41577017  0.96776848     0.07890
Br1022     Br  0.73329349  0.35663366  0.93285330    -0.02720
C1023       C  0.65800461  0.52633454  0.98116561    -0.09350
C1024       C  0.67245409  0.55918195  0.97596182     0.06850
C1025       C  0.70679209  0.56487213  0.98472945    -0.03120
C1026       C  0.72631760  0.53733781  0.99749200    -0.07570
C1027       C  0.71295858  0.50274316  0.00143223     0.05960
C1028       C  0.67717541  0.49846384  0.99356573    -0.02590
Br1029     Br  0.64894758  0.45827921  0.99850439    -0.02290
H1030       H  0.63115199  0.52226608  0.97473003     0.09870
H1031       H  0.75284549  0.54290459  0.00361454     0.07890
Br1032     Br  0.72842560  0.60940950  0.97823717    -0.02720
loop_ 
_geom_bond_atom_site_label_1 
_geom_bond_atom_site_label_2 
_geom_bond_distance 
_geom_bond_site_symmetry_2 
_ccdc_geom_bond_type 
C1          C994   1.568       .  S
C1         C1004   1.591   1_554  S
C1         C1017   1.593       .  S
C1         C1027   1.585       .  S
C2          C954   1.581   1_556  S
C2          C964   1.599       .  S
C2          C974   1.573       .  S
C2          C984   1.582       .  S
C3          C914   1.572   1_655  S
C3          C924   1.575       .  S
C3          C934   1.591       .  S
C3          C947   1.587       .  S
C4          C874   1.581   1_565  S
C4          C884   1.590       .  S
C4          C894   1.595       .  S
C4          C904   1.590       .  S
C5          C834   1.589   1_565  S
C5          C844   1.572       .  S
C5          C854   1.561       .  S
C5          C864   1.584       .  S
C6          C794   1.595   1_655  S
C6          C804   1.570       .  S
C6          C814   1.573       .  S
C6          C824   1.596       .  S
C7          C754   1.581   1_556  S
C7          C767   1.573       .  S
C7          C774   1.572       .  S
C7          C784   1.588       .  S
O8          Cu16   2.048   1_554  S
O8           C18   1.281       .  A
O9          Cu16   2.054   1_455  S
O9           C19   1.283       .  A
O10         Cu16   2.028       .  S
O10          C20   1.278       .  A
O11         Cu16   2.034   1_454  S
O11          C21   1.279       .  A
O12         Cu17   1.971   1_554  S
O12          C21   1.274       .  A
O13         Cu17   1.995   1_655  S
O13          C20   1.277       .  A
O14         Cu17   1.934       .  S
O14          C19   1.269       .  A
O15         Cu17   1.939   1_654  S
O15          C18   1.272       .  A
Cu16        Cu17   2.371   1_655  S
C18         C734   1.488       .  S
C19         C724   1.462       .  S
C20         C747   1.474       .  S
C21         C714   1.464       .  S
C22         C927   1.507       .  S
C22          C23   1.418       .  A
C22          C27   1.414       .  A
C23          C24   1.415       .  A
C23          H28   1.082       .  S
C24        C1007   1.486       .  S
C24          C25   1.404       .  A
C25          C26   1.399       .  A
C25          H29   1.085       .  S
C26         C744   1.498       .  S
C26          C27   1.396       .  A
C27          H30   1.079       .  S
C31         C677   1.591   1_655  S
C31         C684   1.592       .  S
C31         C697   1.571       .  S
C31         C704   1.587       .  S
C32         C687   1.509       .  S
C32          C33   1.425       .  A
C32          C37   1.410       .  A
C33          C34   1.421       .  A
C33          H38   1.080       .  S
C34         C997   1.492       .  S
C34          C35   1.407       .  A
C35          C36   1.390       .  A
C35          H39   1.085       .  S
C36         C737   1.473       .  S
C36          C37   1.389       .  A
C37          H40   1.085       .  S
C41         C764   1.481       .  S
C41          C42   1.402       .  A
C41          C46   1.411       .  A
C42          C43   1.402       .  A
C42          H47   1.083       .  S
C43         C917   1.475       .  S
C43          C44   1.404       .  A
C44          C45   1.400       .  A
C44          H48   1.081       .  S
C45         C727   1.505       .  S
C45          C46   1.407       .  A
C46          H49   1.081       .  S
O50         Cu58   1.973       .  S
O50          C60   1.273       .  A
O51         Cu58   2.008       .  S
O51          C61   1.275       .  A
O52         Cu58   2.037       .  S
O52          C62   1.282       .  A
O53         Cu58   2.030       .  S
O53          C63   1.283       .  A
O54         Cu59   1.972       .  S
O54          C63   1.271       .  A
O55         Cu59   1.956       .  S
O55          C62   1.272       .  A
O56         Cu59   2.010       .  S
O56          C61   1.280       .  A
O57         Cu59   2.021       .  S
O57          C60   1.280       .  A
Cu58        Cu59   2.372       .  S
C60         C664   1.474       .  S
C61         C644   1.471       .  S
C62         C654   1.469       .  S
C63         C634   1.475       .  S
C64         C987   1.481       .  S
C64          C65   1.401       .  A
C64          C69   1.404       .  A
C65          C66   1.408       .  A
C65          H70   1.084       .  S
C66         C657   1.502       .  S
C66          C67   1.406       .  A
C67          C68   1.409       .  A
C67          H71   1.081       .  S
C68        C1024   1.481       .  S
C68          C69   1.408       .  A
C69          H72   1.084   1_556  S
C73         C594   1.638   1_556  S
C73         C607   1.586       .  S
C73         C614   1.571       .  S
C73         C624   1.594       .  S
O74         Cu82   1.971       .  S
O74          C84   1.274       .  A
O75         Cu82   1.967   1_546  S
O75          C85   1.274       .  A
O76         Cu82   1.934   1_556  S
O76          C86   1.271       .  A
O77         Cu82   1.934   1_545  S
O77          C87   1.269       .  A
O78         Cu83   2.064   1_544  S
O78          C87   1.284       .  A
O79         Cu83   2.050       .  S
O79          C86   1.282       .  A
O80         Cu83   2.031   1_545  S
O80          C85   1.279       .  A
O81         Cu83   2.033   1_554  S
O81          C84   1.278       .  A
Cu82        Cu83   2.371   1_554  S
C84         C574   1.462       .  S
C85         C564   1.465       .  S
C86         C584   1.488       .  S
C87         C554   1.467       .  S
C88         C887   1.516       .  S
C88          C89   1.432       .  A
C88          C93   1.411       .  A
C89          C90   1.433       .  A
C89          H94   1.082       .  S
C90         C967   1.503       .  S
C90          C91   1.407       .  A
C91          C92   1.389       .  A
C91          H95   1.086       .  S
C92         C587   1.476       .  S
C92          C93   1.389       .  A
C93          H96   1.085       .  S
C97         C514   1.572   1_565  S
C97         C524   1.591       .  S
C97         C537   1.610       .  S
C97         C544   1.575       .  S
C98         C527   1.518       .  S
C98          C99   1.419       .  A
C98         C103   1.415       .  A
C99         C100   1.420       .  A
C99         H104   1.079       .  S
C100        C957   1.482       .  S
C100        C101   1.402       .  A
C101        C102   1.394       .  A
C101        H105   1.084       .  S
C102        C577   1.491       .  S
C102        C103   1.397       .  A
C103        H106   1.083       .  S
C107        C604   1.474       .  S
C107        C108   1.406       .  A
C107        C112   1.401       .  A
C108        C109   1.405       .  A
C108        H113   1.083       .  S
C109        C877   1.485       .  S
C109        C110   1.411       .  A
C110        C111   1.412       .  A
C110        H114   1.082       .  S
C111        C567   1.504       .  S
C111        C112   1.395       .  A
C112        H115   1.080       .  S
O116       Cu124   1.984       .  S
O116        C126   1.275       .  A
O117       Cu124   1.962       .  S
O117        C127   1.273       .  A
O118       Cu124   1.933       .  S
O118        C128   1.270       .  A
O119       Cu124   1.931       .  S
O119        C129   1.265       .  A
O120       Cu125   2.057       .  S
O120        C129   1.283       .  A
O121       Cu125   2.063       .  S
O121        C128   1.283       .  A
O122       Cu125   2.027       .  S
O122        C127   1.278       .  A
O123       Cu125   2.029       .  S
O123        C126   1.278       .  A
Cu124      Cu125   2.371       .  S
C126        C497   1.465       .  S
C127        C484   1.464       .  S
C128        C504   1.469       .  S
C129        C474   1.483       .  S
C130        C944   1.498   1_455  S
C130        C131   1.412   1_455  A
C130        C135   1.406       .  A
C131        C132   1.413   1_655  A
C131        H136   1.083       .  S
C132        C827   1.486       .  S
C132        C133   1.405       .  A
C133        C134   1.404       .  A
C133        H137   1.083       .  S
C134        C494   1.505       .  S
C134        C135   1.406       .  A
C135        H138   1.076       .  S
O139       Cu147   2.038       .  S
O139        C149   1.280       .  A
O140       Cu147   2.017       .  S
O140        C150   1.279       .  A
O141       Cu147   2.043       .  S
O141        C151   1.282       .  A
O142       Cu147   2.012       .  S
O142        C152   1.278       .  A
O143       Cu148   1.955       .  S
O143        C152   1.273       .  A
O144       Cu148   1.954       .  S
O144        C151   1.272       .  A
O145       Cu148   1.999       .  S
O145        C150   1.276       .  A
O146       Cu148   1.975       .  S
O146        C149   1.274       .  A
Cu147      Cu148   2.369       .  S
C149        C454   1.469       .  S
C150        C437   1.491       .  S
C151        C467   1.468       .  S
C152        C447   1.473       .  S
C153        C907   1.499       .  S
C153        C154   1.411       .  A
C153        C158   1.403       .  A
C154        C155   1.416       .  A
C154        H159   1.082   1_545  S
C155        C867   1.483       .  S
C155        C156   1.409       .  A
C156        C157   1.404       .  A
C156        H160   1.083       .  S
C157        C457   1.496       .  S
C157        C158   1.399       .  A
C158        H161   1.082       .  S
C162        C394   1.590   1_565  S
C162        C404   1.586       .  S
C162        C414   1.605       .  S
C162        C424   1.582       .  S
O163       Cu171   2.017       .  S
O163        C173   1.281       .  A
O164       Cu171   2.032   1_455  S
O164        C174   1.286       .  A
O165       Cu171   1.932   1_455  S
O165        C175   1.269       .  A
O166       Cu171   1.952       .  S
O166        C176   1.267       .  A
O167       Cu172   2.044       .  S
O167        C176   1.286       .  A
O168       Cu172   2.050       .  S
O168        C175   1.284   1_655  A
O169       Cu172   1.941   1_445  S
O169        C174   1.264   1_545  A
O170       Cu172   1.983       .  S
O170        C173   1.272       .  A
Cu171      Cu172   2.375       .  S
C173        C384   1.465       .  S
C174        C354   1.472   1_565  S
C175        C364   1.471       .  S
C176        C374   1.468   1_565  S
C177        C847   1.482       .  S
C177        C178   1.411       .  A
C177        C182   1.403       .  A
C178        C179   1.406       .  A
C178        H183   1.083       .  S
C179        C807   1.487       .  S
C179        C180   1.403       .  A
C180        C181   1.406       .  A
C180        H184   1.081       .  S
C181        C387   1.512       .  S
C181        C182   1.398       .  A
C182        H185   1.074       .  S
C186        C314   1.575   1_655  S
C186        C324   1.578       .  S
C186        C334   1.582       .  S
C186        C344   1.570       .  S
C187        C327   1.476       .  S
C187        C188   1.413       .  A
C187        C192   1.405       .  A
C188        C189   1.412       .  A
C188        H193   1.082       .  S
C189        C837   1.487       .  S
C189        C190   1.400       .  A
C190        C191   1.392       .  A
C190        H194   1.082       .  S
C191        C377   1.483       .  S
C191        C192   1.394       .  A
C192        H195   1.085       .  S
C196        C407   1.486       .  S
C196        C197   1.407       .  A
C196        C201   1.414       .  A
C197        C198   1.403       .  A
C197        H202   1.084       .  S
C198        C797   1.480       .  S
C198        C199   1.398       .  A
C199        C200   1.407       .  A
C199        H203   1.082       .  S
C200        C367   1.505       .  S
C200        C201   1.414       .  A
C201        H204   1.082       .  S
C205        C897   1.498   1_545  S
C205        C206   1.406       .  A
C205        C210   1.416   1_545  A
C206        C207   1.415       .  A
C206        H211   1.082       .  S
C207        C464   1.516       .  S
C207        C208   1.402       .  A
C208        C209   1.406       .  A
C208        H212   1.076       .  S
C209        C417   1.497   1_545  S
C209        C210   1.416   1_545  A
C210        H213   1.082       .  S
C214        C937   1.499   1_455  S
C214        C215   1.411       .  A
C214        C219   1.409   1_455  A
C215        C216   1.396       .  A
C215        H220   1.074       .  S
C216        C507   1.514       .  S
C216        C217   1.408       .  A
C217        C218   1.413       .  A
C217        H221   1.082       .  S
C218        C337   1.492   1_455  S
C218        C219   1.413   1_455  A
C219        H222   1.082       .  S
C223        C317   1.494       .  S
C223        C224   1.400       .  A
C223        C228   1.438       .  A
C224        C225   1.378       .  A
C224        H229   1.084       .  S
C225        C357   1.472       .  S
C225        C226   1.389       .  A
C226        C227   1.398       .  A
C226        H230   1.075       .  S
C227        C397   1.532       .  S
C227        C228   1.444       .  A
C228        H231   1.081       .  S
C232        C547   1.453       .  S
C232        C233   1.404       .  A
C232        C237   1.401   1_565  A
C233        C234   1.403   1_565  A
C233        H238   1.083       .  S
C234        C857   1.470       .  S
C234        C235   1.399       .  A
C235        C236   1.383       .  A
C235        H239   1.085       .  S
C236        C444   1.453       .  S
C236        C237   1.384       .  A
C237        H240   1.085       .  S
C241        C707   1.483   1_455  S
C241        C242   1.406       .  A
C241        C246   1.404       .  A
C242        C243   1.411       .  A
C242        H247   1.083   1_455  S
C243        C817   1.485       .  S
C243        C244   1.408       .  A
C244        C245   1.399       .  A
C244        H248   1.085       .  S
C245        C477   1.473       .  S
C245        C246   1.393       .  A
C246        H249   1.083       .  S
C250       C1014   1.486       .  S
C250        C251   1.404       .  A
C250        C255   1.414       .  A
C251        C252   1.392       .  A
C251        H256   1.083       .  S
C252        C667   1.467       .  S
C252        C253   1.388       .  A
C253        C254   1.399       .  A
C253        H257   1.085       .  S
C254        C617   1.476       .  S
C254        C255   1.417       .  A
C255        H258   1.083   1_556  S
C259        C597   1.504       .  S
C259        C260   1.418       .  A
C259        C264   1.414       .  A
C260        C261   1.406       .  A
C260        H265   1.081       .  S
C261        C557   1.508       .  S
C261        C262   1.401       .  A
C262        C263   1.401       .  A
C262        H266   1.075       .  S
C263        C517   1.487       .  S
C263        C264   1.409       .  A
C264        H267   1.081       .  S
C268        C977   1.481       .  S
C268        C269   1.409       .  A
C268        C273   1.400       .  A
C269        C270   1.410       .  A
C269        H274   1.083   1_556  S
C270        C777   1.489       .  S
C270        C271   1.409       .  A
C271        C272   1.408       .  A
C271        H275   1.076       .  S
C272        C647   1.516       .  S
C272        C273   1.405       .  A
C273        H276   1.081       .  S
C277        C757   1.464       .  S
C277        C278   1.394       .  A
C277        C282   1.399       .  A
C278        C279   1.397       .  A
C278        H283   1.084       .  S
C279        C674   1.472       .  S
C279        C280   1.407       .  A
C280        C281   1.408       .  A
C280        H284   1.081       .  S
C281        C717   1.502       .  S
C281        C282   1.406       .  A
C282        H285   1.080       .  S
C286        C694   1.472   1_455  S
C286        C287   1.410       .  A
C286        C291   1.399   1_455  A
C287        C288   1.404       .  A
C287        H292   1.081       .  S
C288        C487   1.492       .  S
C288        C289   1.398       .  A
C289        C290   1.398       .  A
C289        H293   1.085       .  S
C290        C347   1.460   1_455  S
C290        C291   1.399   1_455  A
C291        H294   1.083       .  S
C295        C534   1.495   1_545  S
C295        C296   1.417       .  A
C295        C300   1.416   1_545  A
C296        C297   1.403       .  A
C296        H301   1.084       .  S
C297        C434   1.481       .  S
C297        C298   1.389       .  A
C298        C299   1.397       .  A
C298        H302   1.082       .  S
C299        C427   1.482   1_545  S
C299        C300   1.412   1_545  A
C300        H303   1.083       .  S
C304        C627   1.506       .  S
C304        C305   1.421       .  A
C304        C309   1.414       .  A
C305        C306   1.417       .  A
C305        H310   1.080       .  S
C306        C787   1.478       .  S
C306        C307   1.403       .  A
C307        C308   1.389       .  A
C307        H311   1.085       .  S
C308        C637   1.487       .  S
C308        C309   1.391       .  A
C309        H312   1.082       .  S
C313        C314   1.412       .  A
C313        C318   1.399       .  A
C313        H320   1.078   1_455  S
C314        C315   1.439       .  A
C315        C316   1.412       .  A
C315       Br322   1.923       .  S
C316        C317   1.400       .  A
C316        H321   1.084       .  S
C317        C318   1.411       .  A
C318       Br319   1.908       .  S
C323        C324   1.429       .  A
C323        C328   1.399       .  A
C323        H330   1.080       .  S
C324        C325   1.424       .  A
C325        C326   1.400       .  A
C325       Br332   1.910       .  S
C326        C327   1.402       .  A
C326        H331   1.084       .  S
C327        C328   1.394       .  A
C328       Br329   1.915       .  S
C333        C334   1.423       .  A
C333        C338   1.408       .  A
C333        H340   1.083       .  S
C334        C335   1.438   1_655  A
C335        C336   1.397       .  A
C335       Br342   1.925       .  S
C336        C337   1.396   1_455  A
C336        H341   1.085       .  S
C337        C338   1.405       .  A
C338       Br339   1.915       .  S
C343        C344   1.416       .  A
C343        C348   1.390       .  A
C343        H350   1.074       .  S
C344        C345   1.442       .  A
C345        C346   1.394       .  A
C345       Br352   1.925       .  S
C346        C347   1.386       .  A
C346        H351   1.084       .  S
C347        C348   1.403       .  A
C348       Br349   1.923       .  S
C353        C354   1.391       .  A
C353        C358   1.380       .  A
C353        H360   1.084       .  S
C354        C355   1.425       .  A
C355        C356   1.400       .  A
C355       Br362   1.921       .  S
C356        C357   1.394       .  A
C356        H361   1.083       .  S
C357        C358   1.416       .  A
C358       Br359   1.905       .  S
C363        C364   1.404       .  A
C363        C368   1.407       .  A
C363        H370   1.083       .  S
C364        C365   1.408       .  A
C365        C366   1.405       .  A
C365       Br372   1.909       .  S
C366        C367   1.410       .  A
C366        H371   1.082       .  S
C367        C368   1.421       .  A
C368       Br369   1.920       .  S
C373        C374   1.408   1_565  A
C373        C378   1.400   1_565  A
C373        H380   1.083       .  S
C374        C375   1.407       .  A
C375        C376   1.388       .  A
C375       Br382   1.917       .  S
C376        C377   1.405       .  A
C376        H381   1.080       .  S
C377        C378   1.411       .  A
C378       Br379   1.922   1_545  S
C383        C384   1.398       .  A
C383        C388   1.395       .  A
C383        H390   1.084       .  S
C384        C385   1.403       .  A
C385        C386   1.401       .  A
C385       Br392   1.915       .  S
C386        C387   1.414       .  A
C386        H391   1.082       .  S
C387        C388   1.421       .  A
C388       Br389   1.922       .  S
C393        C394   1.407       .  A
C393        C398   1.385       .  A
C393        H400   1.080       .  S
C394        C395   1.441       .  A
C395        C396   1.426       .  A
C395       Br402   1.917       .  S
C396        C397   1.412       .  A
C396        H401   1.082       .  S
C397        C398   1.435       .  A
C398       Br399   1.938       .  S
C403        C404   1.421       .  A
C403        C408   1.413       .  A
C403        H410   1.082       .  S
C404        C405   1.438       .  A
C405        C406   1.395       .  A
C405       Br412   1.915       .  S
C406        C407   1.389       .  A
C406        H411   1.085       .  S
C407        C408   1.406       .  A
C408       Br409   1.914       .  S
C413        C414   1.432       .  A
C413        C418   1.411       .  A
C413        H420   1.076       .  S
C414        C415   1.431   1_565  A
C415        C416   1.401       .  A
C415       Br422   1.914       .  S
C416        C417   1.399   1_545  A
C416        H421   1.084       .  S
C417        C418   1.401       .  A
C418       Br419   1.916       .  S
C423        C424   1.421       .  A
C423        C428   1.400       .  A
C423        H430   1.080       .  S
C424        C425   1.432       .  A
C425        C426   1.408       .  A
C425       Br432   1.902       .  S
C426        C427   1.395       .  A
C426        H431   1.084       .  S
C427        C428   1.404       .  A
C428       Br429   1.917       .  S
C433        C434   1.399       .  A
C433        C438   1.393       .  A
C433        H440   1.082       .  S
C434        C435   1.405       .  A
C435        C436   1.409       .  A
C435       Br442   1.914       .  S
C436        C437   1.413       .  A
C436        H441   1.083       .  S
C437        C438   1.420       .  A
C438       Br439   1.926       .  S
C443        C444   1.401       .  A
C443        C448   1.398       .  A
C443        H450   1.084       .  S
C444        C445   1.396       .  A
C445        C446   1.384       .  A
C445       Br452   1.921   1_545  S
C446        C447   1.410       .  A
C446        H451   1.082       .  S
C447        C448   1.413       .  A
C448       Br449   1.919       .  S
C453        C454   1.401       .  A
C453        C458   1.401       .  A
C453        H460   1.083       .  S
C454        C455   1.408       .  A
C455        C456   1.397       .  A
C455       Br462   1.914       .  S
C456        C457   1.405       .  A
C456        H461   1.082       .  S
C457        C458   1.417       .  A
C458       Br459   1.922       .  S
C463        C464   1.415       .  A
C463        C468   1.402       .  A
C463        H470   1.082       .  S
C464        C465   1.435       .  A
C465        C466   1.403       .  A
C465       Br472   1.924       .  S
C466        C467   1.395       .  A
C466        H471   1.085       .  S
C467        C468   1.403       .  A
C468       Br469   1.914       .  S
C473        C474   1.411       .  A
C473        C478   1.410       .  A
C473        H480   1.083       .  S
C474        C475   1.421       .  A
C475        C476   1.378       .  A
C475       Br482   1.930       .  S
C476        C477   1.395       .  A
C476        H481   1.085       .  S
C477        C478   1.407       .  A
C478       Br479   1.915       .  S
C483        C484   1.404       .  A
C483        C488   1.405       .  A
C483        H490   1.083       .  S
C484        C485   1.403       .  A
C485        C486   1.383       .  A
C485       Br492   1.923       .  S
C486        C487   1.409       .  A
C486        H491   1.080       .  S
C487        C488   1.414       .  A
C488       Br489   1.919       .  S
C493        C494   1.411       .  A
C493        C498   1.395       .  A
C493        H500   1.080       .  S
C494        C495   1.414       .  A
C495        C496   1.402       .  A
C495       Br502   1.918       .  S
C496        C497   1.401       .  A
C496        H501   1.083       .  S
C497        C498   1.403       .  A
C498       Br499   1.918       .  S
C503        C504   1.396       .  A
C503        C508   1.399       .  A
C503        H510   1.085       .  S
C504        C505   1.401       .  A
C505        C506   1.405       .  A
C505       Br512   1.914       .  S
C506        C507   1.416       .  A
C506        H511   1.081       .  S
C507        C508   1.431       .  A
C508       Br509   1.921       .  S
C513        C514   1.428       .  A
C513        C518   1.406       .  A
C513        H520   1.083       .  S
C514        C515   1.436       .  A
C515        C516   1.403       .  A
C515       Br522   1.922   1_545  S
C516        C517   1.399       .  A
C516        H521   1.085       .  S
C517        C518   1.400       .  A
C518       Br519   1.915       .  S
C523        C524   1.426       .  A
C523        C528   1.426       .  A
C523        H530   1.070       .  S
C524        C525   1.440       .  A
C525        C526   1.383       .  A
C525       Br532   1.930       .  S
C526        C527   1.395       .  A
C526        H531   1.083       .  S
C527        C528   1.417       .  A
C528       Br529   1.914       .  S
C533        C534   1.404       .  A
C533        C538   1.421       .  A
C533        H540   1.083   1_565  S
C534        C535   1.394       .  A
C535        C536   1.390       .  A
C535       Br542   1.928       .  S
C536        C537   1.432       .  A
C536        H541   1.068       .  S
C537        C538   1.442       .  A
C538       Br539   1.928       .  S
C543        C544   1.426       .  A
C543        C548   1.394       .  A
C543        H550   1.083       .  S
C544        C545   1.434   1_565  A
C545        C546   1.389       .  A
C545       Br552   1.912       .  S
C546        C547   1.387   1_545  A
C546        H551   1.085       .  S
C547        C548   1.397       .  A
C548       Br549   1.917       .  S
C553        C554   1.400       .  A
C553        C558   1.406       .  A
C553        H560   1.083       .  S
C554        C555   1.405       .  A
C555        C556   1.392       .  A
C555       Br562   1.920   1_545  S
C556        C557   1.411       .  A
C556        H561   1.079       .  S
C557        C558   1.419       .  A
C558       Br559   1.912       .  S
C563        C564   1.393       .  A
C563        C568   1.393       .  A
C563        H570   1.085       .  S
C564        C565   1.404       .  A
C565        C566   1.401       .  A
C565       Br572   1.918       .  S
C566        C567   1.412       .  A
C566        H571   1.083       .  S
C567        C568   1.430       .  A
C568       Br569   1.923       .  S
C573        C574   1.399       .  A
C573        C578   1.400       .  A
C573        H580   1.083       .  S
C574        C575   1.405       .  A
C575        C576   1.392       .  A
C575       Br582   1.914   1_554  S
C576        C577   1.405       .  A
C576        H581   1.082       .  S
C577        C578   1.416       .  A
C578       Br579   1.919       .  S
C583        C584   1.406       .  A
C583        C588   1.377       .  A
C583        H590   1.083       .  S
C584        C585   1.417       .  A
C585        C586   1.412       .  A
C585       Br592   1.917       .  S
C586        C587   1.406       .  A
C586        H591   1.082       .  S
C587        C588   1.408       .  A
C588       Br589   1.927       .  S
C593        C594   1.435       .  A
C593        C598   1.380       .  A
C593        H600   1.074       .  S
C594        C595   1.458       .  A
C595        C596   1.424       .  A
C595       Br602   1.916       .  S
C596        C597   1.402       .  A
C596        H601   1.082       .  S
C597        C598   1.391       .  A
C598       Br599   1.923       .  S
C603        C604   1.389       .  A
C603        C608   1.404       .  A
C603        H610   1.084       .  S
C604        C605   1.400       .  A
C605        C606   1.395       .  A
C605       Br612   1.923       .  S
C606        C607   1.420       .  A
C606        H611   1.072       .  S
C607        C608   1.440       .  A
C608       Br609   1.905       .  S
C613        C614   1.418       .  A
C613        C618   1.401       .  A
C613        H620   1.078       .  S
C614        C615   1.445   1_556  A
C615        C616   1.398       .  A
C615       Br622   1.933       .  S
C616        C617   1.394   1_554  A
C616        H621   1.084       .  S
C617        C618   1.406       .  A
C618       Br619   1.918       .  S
C623        C624   1.411   1_554  A
C623        C628   1.410       .  A
C623        H630   1.063   1_554  S
C624        C625   1.453       .  A
C625        C626   1.393       .  A
C625       Br632   1.950       .  S
C626        C627   1.399   1_556  A
C626        H631   1.083       .  S
C627        C628   1.407       .  A
C628       Br629   1.917       .  S
C633        C634   1.412       .  A
C633        C638   1.402   1_556  A
C633        H640   1.084       .  S
C634        C635   1.402       .  A
C635        C636   1.391       .  A
C635       Br642   1.920       .  S
C636        C637   1.411   1_556  A
C636        H641   1.078       .  S
C637        C638   1.405       .  A
C638       Br639   1.918       .  S
C643        C644   1.405       .  A
C643        C648   1.402       .  A
C643        H650   1.083       .  S
C644        C645   1.407       .  A
C645        C646   1.401       .  A
C645       Br652   1.913       .  S
C646        C647   1.411       .  A
C646        H651   1.082       .  S
C647        C648   1.410       .  A
C648       Br649   1.911       .  S
C653        C654   1.402       .  A
C653        C658   1.404       .  A
C653        H660   1.084       .  S
C654        C655   1.404       .  A
C655        C656   1.402       .  A
C655       Br662   1.914       .  S
C656        C657   1.412       .  A
C656        H661   1.083       .  S
C657        C658   1.423       .  A
C658       Br659   1.923       .  S
C663        C664   1.411       .  A
C663        C668   1.398       .  A
C663        H670   1.084       .  S
C664        C665   1.409       .  A
C665        C666   1.392       .  A
C665       Br672   1.920       .  S
C666        C667   1.400       .  A
C666        H671   1.082       .  S
C667        C668   1.400       .  A
C668       Br669   1.917       .  S
C673        C674   1.385       .  A
C673        C678   1.394       .  A
C673        H680   1.085       .  S
C674        C675   1.402       .  A
C675        C676   1.397       .  A
C675       Br682   1.919       .  S
C676        C677   1.428       .  A
C676        H681   1.083   1_455  S
C677        C678   1.440       .  A
C678       Br679   1.906       .  S
C683        C684   1.427       .  A
C683        C688   1.412       .  A
C683        H690   1.074       .  S
C684        C685   1.436       .  A
C685        C686   1.388       .  A
C685       Br692   1.942       .  S
C686        C687   1.406       .  A
C686        H691   1.082       .  S
C687        C688   1.407       .  A
C688       Br689   1.917       .  S
C693        C694   1.401       .  A
C693        C698   1.410       .  A
C693        H700   1.083       .  S
C694        C695   1.394   1_655  A
C695        C696   1.382       .  A
C695       Br702   1.925       .  S
C696        C697   1.421   1_455  A
C696        H701   1.071       .  S
C697        C698   1.436       .  A
C698       Br699   1.929       .  S
C703        C704   1.425       .  A
C703        C708   1.396       .  A
C703        H710   1.071       .  S
C704        C705   1.442       .  A
C705        C706   1.402   1_655  A
C705       Br712   1.936   1_655  S
C706        C707   1.400   1_455  A
C706        H711   1.085       .  S
C707        C708   1.393       .  A
C708       Br709   1.918       .  S
C713        C714   1.401       .  A
C713        C718   1.402       .  A
C713        H720   1.083       .  S
C714        C715   1.404       .  A
C715        C716   1.394       .  A
C715       Br722   1.918       .  S
C716        C717   1.410       .  A
C716        H721   1.079       .  S
C717        C718   1.418       .  A
C718       Br719   1.923       .  S
C723        C724   1.404       .  A
C723        C728   1.405       .  A
C723        H730   1.083       .  S
C724        C725   1.401       .  A
C725        C726   1.396       .  A
C725       Br732   1.917       .  S
C726        C727   1.414       .  A
C726        H731   1.080       .  S
C727        C728   1.419       .  A
C728       Br729   1.923       .  S
C733        C734   1.406       .  A
C733        C738   1.376       .  A
C733        H740   1.083       .  S
C734        C735   1.417       .  A
C735        C736   1.412       .  A
C735       Br742   1.916       .  S
C736        C737   1.405       .  A
C736        H741   1.083       .  S
C737        C738   1.407       .  A
C738       Br739   1.925       .  S
C743        C744   1.406       .  A
C743        C748   1.384       .  A
C743        H750   1.078       .  S
C744        C745   1.417       .  A
C745        C746   1.411       .  A
C745       Br752   1.918       .  S
C746        C747   1.406       .  A
C746        H751   1.082       .  S
C747        C748   1.405       .  A
C748       Br749   1.917       .  S
C753        C754   1.423       .  A
C753        C758   1.391       .  A
C753        H760   1.063       .  S
C754        C755   1.440       .  A
C755        C756   1.397       .  A
C755       Br762   1.928       .  S
C756        C757   1.391       .  A
C756        H761   1.084       .  S
C757        C758   1.394       .  A
C758       Br759   1.922       .  S
C763        C764   1.390       .  A
C763        C768   1.386       .  A
C763        H770   1.085       .  S
C764        C765   1.408       .  A
C765        C766   1.411       .  A
C765       Br772   1.914       .  S
C766        C767   1.417       .  A
C766        H771   1.084       .  S
C767        C768   1.436       .  A
C768       Br769   1.926       .  S
C773        C774   1.420       .  A
C773        C778   1.414       .  A
C773        H780   1.080       .  S
C774        C775   1.442       .  A
C775        C776   1.395       .  A
C775       Br782   1.927       .  S
C776        C777   1.390       .  A
C776        H781   1.084       .  S
C777        C778   1.407       .  A
C778       Br779   1.909       .  S
C783        C784   1.427   1_554  A
C783        C788   1.401       .  A
C783        H790   1.077       .  S
C784        C785   1.433       .  A
C785        C786   1.403       .  A
C785       Br792   1.907       .  S
C786        C787   1.395   1_556  A
C786        H791   1.084       .  S
C787        C788   1.398       .  A
C788       Br789   1.916       .  S
C793        C794   1.428       .  A
C793        C798   1.403       .  A
C793        H800   1.082   1_455  S
C794        C795   1.436       .  A
C795        C796   1.402       .  A
C795       Br802   1.915       .  S
C796        C797   1.392       .  A
C796        H801   1.084       .  S
C797        C798   1.400       .  A
C798       Br799   1.917       .  S
C803        C804   1.424       .  A
C803        C808   1.402       .  A
C803        H810   1.077       .  S
C804        C805   1.432       .  A
C805        C806   1.396       .  A
C805       Br812   1.934       .  S
C806        C807   1.403       .  A
C806        H811   1.084       .  S
C807        C808   1.401       .  A
C808       Br809   1.918       .  S
C813        C814   1.419   1_455  A
C813        C818   1.395       .  A
C813        H820   1.077       .  S
C814        C815   1.431       .  A
C815        C816   1.401       .  A
C815       Br822   1.926       .  S
C816        C817   1.402   1_655  A
C816        H821   1.083       .  S
C817        C818   1.403       .  A
C818       Br819   1.921       .  S
C823        C824   1.413   1_455  A
C823        C828   1.393       .  A
C823        H830   1.079       .  S
C824        C825   1.444       .  A
C825        C826   1.411       .  A
C825       Br832   1.925       .  S
C826        C827   1.394   1_655  A
C826        H831   1.083       .  S
C827        C828   1.400       .  A
C828       Br829   1.912       .  S
C833        C834   1.425       .  A
C833        C838   1.407       .  A
C833        H840   1.074       .  S
C834        C835   1.434       .  A
C835        C836   1.388       .  A
C835       Br842   1.924   1_545  S
C836        C837   1.397       .  A
C836        H841   1.085       .  S
C837        C838   1.406       .  A
C838       Br839   1.918       .  S
C843        C844   1.423       .  A
C843        C848   1.395       .  A
C843        H850   1.076       .  S
C844        C845   1.432       .  A
C845        C846   1.402       .  A
C845       Br852   1.919       .  S
C846        C847   1.399       .  A
C846        H851   1.084       .  S
C847        C848   1.404       .  A
C848       Br849   1.925       .  S
C853        C854   1.423   1_545  A
C853        C858   1.379       .  A
C853        H860   1.083       .  S
C854        C855   1.440       .  A
C855        C856   1.404       .  A
C855       Br862   1.924       .  S
C856        C857   1.397   1_565  A
C856        H861   1.083       .  S
C857        C858   1.399       .  A
C858       Br859   1.925       .  S
C863        C864   1.424       .  A
C863        C868   1.409       .  A
C863        H870   1.083       .  S
C864        C865   1.445       .  A
C865        C866   1.395   1_565  A
C865       Br872   1.933       .  S
C866        C867   1.390       .  A
C866        H871   1.085       .  S
C867        C868   1.402   1_545  A
C868       Br869   1.914       .  S
C873        C874   1.421       .  A
C873        C878   1.398       .  A
C873        H880   1.077   1_545  S
C874        C875   1.435       .  A
C875        C876   1.411       .  A
C875       Br882   1.921       .  S
C876        C877   1.400       .  A
C876        H881   1.083       .  S
C877        C878   1.399       .  A
C878       Br879   1.918       .  S
C883        C884   1.429       .  A
C883        C888   1.427       .  A
C883        H890   1.081       .  S
C884        C885   1.429       .  A
C885        C886   1.386       .  A
C885       Br892   1.916       .  S
C886        C887   1.399       .  A
C886        H891   1.082       .  S
C887        C888   1.411       .  A
C888       Br889   1.912       .  S
C893        C894   1.428       .  A
C893        C898   1.405       .  A
C893        H900   1.074       .  S
C894        C895   1.433       .  A
C895        C896   1.413       .  A
C895       Br902   1.920       .  S
C896        C897   1.402       .  A
C896        H901   1.083       .  S
C897        C898   1.402       .  A
C898       Br899   1.921   1_565  S
C903        C904   1.427       .  A
C903        C908   1.411       .  A
C903        H910   1.083       .  S
C904        C905   1.444   1_565  A
C905        C906   1.396       .  A
C905       Br912   1.926       .  S
C906        C907   1.395       .  A
C906        H911   1.085       .  S
C907        C908   1.405   1_545  A
C908       Br909   1.916       .  S
C913        C914   1.429       .  A
C913        C918   1.397       .  A
C913        H920   1.083   1_455  S
C914        C915   1.438       .  A
C915        C916   1.395       .  A
C915       Br922   1.911       .  S
C916        C917   1.392       .  A
C916        H921   1.085       .  S
C917        C918   1.400       .  A
C918       Br919   1.918       .  S
C923        C924   1.423       .  A
C923        C928   1.414       .  A
C923        H930   1.076       .  S
C924        C925   1.433       .  A
C925        C926   1.388       .  A
C925       Br932   1.930       .  S
C926        C927   1.402       .  A
C926        H931   1.083       .  S
C927        C928   1.412       .  A
C928       Br929   1.917       .  S
C933        C934   1.424       .  A
C933        C938   1.410       .  A
C933        H940   1.083       .  S
C934        C935   1.449   1_655  A
C935        C936   1.397       .  A
C935       Br942   1.937       .  S
C936        C937   1.392   1_455  A
C936        H941   1.085       .  S
C937        C938   1.409       .  A
C938       Br939   1.915       .  S
C943        C944   1.396       .  A
C943        C948   1.408       .  A
C943        H950   1.083       .  S
C944        C945   1.410   1_655  A
C945        C946   1.406       .  A
C945       Br952   1.921       .  S
C946        C947   1.420   1_455  A
C946        H951   1.078       .  S
C947        C948   1.441       .  A
C948       Br949   1.926       .  S
C953        C954   1.417       .  A
C953        C958   1.397       .  A
C953        H960   1.074   1_554  S
C954        C955   1.439       .  A
C955        C956   1.407       .  A
C955       Br962   1.922       .  S
C956        C957   1.394       .  A
C956        H961   1.084       .  S
C957        C958   1.405       .  A
C958       Br959   1.923       .  S
C963        C964   1.420       .  A
C963        C968   1.396       .  A
C963        H970   1.076       .  S
C964        C965   1.437       .  A
C965        C966   1.419       .  A
C965       Br972   1.921       .  S
C966        C967   1.404       .  A
C966        H971   1.083       .  S
C967        C968   1.406       .  A
C968       Br969   1.923       .  S
C973        C974   1.426   1_554  A
C973        C978   1.405       .  A
C973        H980   1.079       .  S
C974        C975   1.432       .  A
C975        C976   1.393       .  A
C975       Br982   1.925       .  S
C976        C977   1.397       .  A
C976        H981   1.085       .  S
C977        C978   1.399   1_556  A
C978       Br979   1.916       .  S
C983        C984   1.419   1_554  A
C983        C988   1.399   1_554  A
C983        H990   1.079       .  S
C984        C985   1.433       .  A
C985        C986   1.405       .  A
C985       Br992   1.922       .  S
C986        C987   1.398       .  A
C986        H991   1.083       .  S
C987        C988   1.401       .  A
C988       Br989   1.918       .  S
C993        C994   1.421       .  A
C993        C998   1.411       .  A
C993       H1000   1.083       .  S
C994        C995   1.438       .  A
C995        C996   1.397       .  A
C995      Br1002   1.934       .  S
C996        C997   1.397       .  A
C996       H1001   1.084       .  S
C997        C998   1.409       .  A
C998       Br999   1.916       .  S
C1003      C1004   1.429       .  A
C1003      C1008   1.401       .  A
C1003      H1010   1.083       .  S
C1004      C1005   1.435       .  A
C1005      C1006   1.403       .  A
C1005     Br1012   1.925   1_556  S
C1006      C1007   1.400       .  A
C1006      H1011   1.082       .  S
C1007      C1008   1.398       .  A
C1008     Br1009   1.916       .  S
C1013      C1014   1.401   1_554  A
C1013      C1018   1.413       .  A
C1013      H1020   1.083       .  S
C1014      C1015   1.399       .  A
C1015      C1016   1.398       .  A
C1015     Br1022   1.917       .  S
C1016      C1017   1.424   1_556  A
C1016      H1021   1.078       .  S
C1017      C1018   1.435       .  A
C1018     Br1019   1.915       .  S
C1023      C1024   1.391       .  A
C1023      C1028   1.401       .  A
C1023      H1030   1.086       .  S
C1024      C1025   1.396       .  A
C1025      C1026   1.403       .  A
C1025     Br1032   1.915       .  S
C1026      C1027   1.431   1_556  A
C1026      H1031   1.080   1_556  S
C1027      C1028   1.434   1_554  A
C1028     Br1029   1.893       .  S
