geometry optimzed in LAMMPS
_audit_creation_date              2020-11-30 
_audit_creation_method            'lammps2cif' 
_symmetry_space_group_name_H-M    'P1' 
_symmetry_Int_Tables_number       1 
_symmetry_cell_setting            triclinic 
loop_ 
_symmetry_equiv_pos_as_xyz 
  x,y,z 
_cell_length_a                    45.62504169292836 
_cell_length_b                    56.86250931882858 
_cell_length_c                    68.8964783548342 
_cell_angle_alpha                 89.88801909449016 
_cell_angle_beta                  98.53790596841519 
_cell_angle_gamma                 89.97370012310414 
loop_ 
_atom_site_label 
_atom_site_type_symbol 
_atom_site_fract_x 
_atom_site_fract_y 
_atom_site_fract_z 
_atom_site_charge 
N1          N  0.46192718  0.68109452  0.48079047    -0.26970
N2          N  0.45251236  0.66084223  0.47289107    -0.34830
C3          C  0.42782031  0.66446147  0.46000867     0.01370
C4          C  0.42118222  0.68833502  0.45952579     0.07400
C5          C  0.44351097  0.69824242  0.47300159    -0.05700
H6          H  0.41564331  0.65040254  0.45206752     0.08060
H7          H  0.44629644  0.71653465  0.47703251     0.09260
Cu8        Cu  0.47262457  0.62886011  0.48027942     0.44170
Cu9        Cu  0.49877572  0.68414162  0.50230624     0.41990
Cu10       Cu  0.53353513  0.62873030  0.51976955     0.43880
N11         N  0.49328984  0.59850481  0.49172347    -0.34360
N12         N  0.51486203  0.59830852  0.50681007    -0.28610
C13         C  0.52197132  0.57587002  0.51162942    -0.04710
C14         C  0.50427242  0.56131138  0.49873633     0.07510
C15         C  0.48636602  0.57626534  0.48631949     0.01300
H16         H  0.53884887  0.57056210  0.52355943     0.08950
H17         H  0.46890055  0.57137334  0.47464637     0.08030
N18         N  0.54898468  0.66156351  0.52952146    -0.35800
N19         N  0.53614345  0.68167565  0.52349027    -0.27980
C20         C  0.55155012  0.69949433  0.53292423    -0.03220
C21         C  0.57534721  0.69015232  0.54539969     0.05390
C22         C  0.57304058  0.66606465  0.54276509     0.03480
H23         H  0.54610412  0.71789049  0.53054500     0.08590
H24         H  0.58757575  0.65271918  0.55011626     0.07420
N25         N  0.49177475  0.42273441  0.49145373    -0.26970
N26         N  0.51284832  0.42288933  0.50684107    -0.34830
C27         C  0.51930890  0.44524820  0.51208603     0.01370
C28         C  0.50158295  0.45991915  0.49928861     0.07400
C29         C  0.48451296  0.44505992  0.48630598    -0.05700
H30         H  0.53604352  0.45040167  0.52412420     0.08060
H31         H  0.46763429  0.45008121  0.47427982     0.09260
Cu32       Cu  0.53212054  0.39277308  0.51986219     0.44170
Cu33       Cu  0.47250575  0.39206026  0.47938515     0.41990
Cu34       Cu  0.49337913  0.33844509  0.50730136     0.43880
N35         N  0.54723176  0.36041255  0.53081744    -0.34360
N36         N  0.53246995  0.34056725  0.52692764    -0.28610
C37         C  0.54776379  0.32290125  0.53675306    -0.04710
C38         C  0.57351654  0.33210921  0.54710440     0.07510
C39         C  0.57250527  0.35590038  0.54293726     0.01300
H40         H  0.54095435  0.30466245  0.53606673     0.08950
H41         H  0.58870333  0.36903705  0.54854896     0.08030
N42         N  0.45856076  0.34063784  0.48425822    -0.35800
N43         N  0.45219805  0.35973056  0.47343700    -0.27980
C44         C  0.42951549  0.35498831  0.45918654    -0.03220
C45         C  0.42099561  0.33192184  0.46128982     0.05390
C46         C  0.43972997  0.32336091  0.47736660     0.03480
H47         H  0.41940636  0.36760905  0.44846151     0.08590
H48         H  0.43990992  0.30579863  0.48345517     0.07420
N49         N  0.74121487  0.23909975  0.68925507    -0.26970
N50         N  0.72312748  0.25710929  0.68505154    -0.34830
C51         C  0.71718019  0.26670041  0.70183991     0.01370
C52         C  0.73220469  0.25408864  0.71751837     0.07400
C53         C  0.74718860  0.23663822  0.70885782    -0.05700
H54         H  0.70275169  0.28167909  0.70247810     0.08060
H55         H  0.76071400  0.22266411  0.71607314     0.09260
Cu56       Cu  0.70626025  0.26685816  0.65663987     0.44170
Cu57       Cu  0.75601477  0.21850504  0.66791872     0.41990
Cu58       Cu  0.73388400  0.23602082  0.61688479     0.43880
N59         N  0.69127934  0.27286282  0.62720870    -0.34360
N60         N  0.70209763  0.26245759  0.61263940    -0.28610
C61         C  0.68705208  0.27007833  0.59547921    -0.04710
C62         C  0.66560618  0.28574143  0.59955853     0.07510
C63         C  0.66879190  0.28701248  0.61975815     0.01300
H64         H  0.69047962  0.26380586  0.58116879     0.08950
H65         H  0.65543440  0.29717666  0.62842125     0.08030
N66         N  0.76010733  0.20686569  0.62558750    -0.35800
N67         N  0.76747871  0.20035633  0.64410728    -0.27980
C68         C  0.78226084  0.17986945  0.64475534    -0.03220
C69         C  0.78430943  0.17303124  0.62573381     0.05390
C70         C  0.77020911  0.19068519  0.61396286     0.03480
H71         H  0.79064186  0.17059356  0.65814994     0.08590
H72         H  0.76643417  0.19122893  0.59809035     0.07420
N73         N  0.71609267  0.28325752  0.82852497    -0.26970
N74         N  0.73389206  0.26505775  0.83269508    -0.34830
C75         C  0.74021831  0.25575207  0.81588735     0.01370
C76         C  0.72571808  0.26873018  0.80025238     0.07400
C77         C  0.71067092  0.28610098  0.80894562    -0.05700
H78         H  0.75458105  0.24074031  0.81520218     0.08060
H79         H  0.69752801  0.30031199  0.80178119     0.09260
Cu80       Cu  0.75038079  0.25490461  0.86109649     0.44170
Cu81       Cu  0.70123518  0.30396559  0.84977303     0.41990
Cu82       Cu  0.72928986  0.29028559  0.90068728     0.43880
N83         N  0.76735805  0.25017654  0.89042225    -0.34360
N84         N  0.75973958  0.26295047  0.90488416    -0.28610
C85         C  0.77598859  0.25609516  0.92185881    -0.04710
C86         C  0.79497300  0.23827836  0.91787746     0.07510
C87         C  0.78865684  0.23492820  0.89777488     0.01300
H88         H  0.77474709  0.26407362  0.93595495     0.08950
H89         H  0.79877433  0.22242331  0.88899423     0.08030
N90         N  0.70106906  0.31821855  0.89195410    -0.35800
N91         N  0.69101731  0.32315176  0.87340611    -0.27980
C92         C  0.67480006  0.34294888  0.87257475    -0.03220
C93         C  0.67472320  0.35106431  0.89152336     0.05390
C94         C  0.69145305  0.33478180  0.90342854     0.03480
H95         H  0.66410477  0.35083361  0.85907233     0.08590
H96         H  0.69720160  0.33538580  0.91922757     0.07420
N97         N  0.86127517  0.06007757  0.58789126    -0.26970
N98         N  0.84107645  0.04849106  0.59597867    -0.34830
C99         C  0.82392185  0.06399358  0.60377448     0.01370
C100        C  0.83360321  0.08651009  0.60034382     0.07400
C101        C  0.85739726  0.08330294  0.59022645    -0.05700
H102        H  0.80556124  0.05916494  0.61125572     0.08060
H103        H  0.87130570  0.09675022  0.58523629     0.09260
Cu104      Cu  0.83759292  0.01215639  0.59612307     0.44170
Cu105      Cu  0.89296761  0.04362554  0.57401718     0.41990
Cu106      Cu  0.88684688  0.97985498  0.56968555     0.43880
N107        N  0.83886284  0.97575856  0.59503855    -0.34360
N108        N  0.85691140  0.96385543  0.58537157    -0.28610
C109        C  0.85273203  0.94070675  0.58791748    -0.04710
C110        C  0.83103124  0.93783222  0.59986073     0.07510
C111        C  0.82268635  0.96054030  0.60397072     0.01300
H112        H  0.86501681  0.92701313  0.58178074     0.08950
H113        H  0.80587891  0.96580614  0.61261614     0.08030
N114        N  0.91642323  0.00003807  0.55668236    -0.35800
N115        N  0.91953788  0.02303664  0.55896780    -0.27980
C116        C  0.94132267  0.03048649  0.54928889    -0.03220
C117        C  0.95207135  0.01131661  0.54023316     0.05390
C118        C  0.93580969  0.99230717  0.54522464     0.03480
H119        H  0.94835015  0.04858855  0.54854683     0.08590
H120        H  0.93820151  0.97414250  0.54112144     0.07420
N121        N  0.59989769  0.55942960  0.93182529    -0.26970
N122        N  0.61433126  0.54781962  0.91958870    -0.34830
C123        C  0.62890126  0.56325733  0.90973037     0.01370
C124        C  0.62347613  0.58569846  0.91610718     0.07400
C125        C  0.60511577  0.58257797  0.93020378    -0.05700
H126        H  0.64298278  0.55839774  0.89906314     0.08060
H127        H  0.59590385  0.59614271  0.93850148     0.09260
Cu128      Cu  0.61471146  0.51149121  0.91740645     0.44170
Cu129      Cu  0.57285290  0.54325390  0.94950318     0.41990
Cu130      Cu  0.56775911  0.47952230  0.94586365     0.43880
N131        N  0.61423262  0.47514099  0.91942635    -0.34360
N132        N  0.59751363  0.46338344  0.93019088    -0.28610
C133        C  0.60301834  0.44024322  0.92885519    -0.04710
C134        C  0.62417523  0.43728252  0.91656319     0.07510
C135        C  0.63065855  0.45981943  0.91082870     0.01300
H136        H  0.59191828  0.42662521  0.93598431     0.08950
H137        H  0.64644041  0.46478660  0.90128241     0.08030
N138        N  0.54075745  0.50004760  0.96063045    -0.35800
N139        N  0.54348016  0.52310606  0.96270210    -0.27980
C140        C  0.52318909  0.53091033  0.97346805    -0.03220
C141        C  0.50672426  0.51188919  0.97808377     0.05390
C142        C  0.51833319  0.49261930  0.96972523     0.03480
H143        H  0.52019089  0.54912316  0.97723621     0.08590
H144        H  0.51121640  0.47452676  0.97035894     0.07420
N145        N  0.73992904  0.78406963  0.68872301    -0.26970
N146        N  0.72162095  0.76619359  0.68454905    -0.34830
C147        C  0.71530124  0.75682874  0.70137585     0.01370
C148        C  0.73020058  0.76951019  0.71697397     0.07400
C149        C  0.74572782  0.78659724  0.70831705    -0.05700
H150        H  0.70037629  0.74218944  0.70213475     0.08060
H151        H  0.76037096  0.79984242  0.71560504     0.09260
Cu152      Cu  0.70520195  0.75606494  0.65613112     0.44170
Cu153      Cu  0.75543984  0.80459916  0.66752462     0.41990
Cu154      Cu  0.73178132  0.78836980  0.61668625     0.43880
N155        N  0.69048491  0.75024060  0.62660278    -0.34360
N156        N  0.70039521  0.76175107  0.61218266    -0.28610
C157        C  0.68543975  0.75445371  0.59492969    -0.04710
C158        C  0.66525609  0.73761124  0.59876654     0.07510
C159        C  0.66891328  0.73540552  0.61892941     0.01300
H160        H  0.68838412  0.76142908  0.58072271     0.08950
H161        H  0.65637228  0.72424584  0.62742291     0.08030
N162        N  0.75911160  0.81681853  0.62529463    -0.35800
N163        N  0.76707332  0.82301178  0.64381110    -0.27980
C164        C  0.78236178  0.84326218  0.64439950    -0.03220
C165        C  0.78435506  0.85011535  0.62534173     0.05390
C166        C  0.76937303  0.83288203  0.61361374     0.03480
H167        H  0.79091664  0.85252435  0.65773891     0.08590
H168        H  0.76489393  0.83263225  0.59775233     0.07420
N169        N  0.71558459  0.73965699  0.82800108    -0.26970
N170        N  0.73428905  0.75730965  0.83209650    -0.34830
C171        C  0.74073587  0.76646276  0.81523314     0.01370
C172        C  0.72553999  0.75388614  0.79969160     0.07400
C173        C  0.70970279  0.73706252  0.80840698    -0.05700
H174        H  0.75599457  0.78086254  0.81441162     0.08060
H175        H  0.69485101  0.72392738  0.80114944     0.09260
Cu176      Cu  0.75153226  0.76742842  0.86038201     0.44170
Cu177      Cu  0.69994383  0.71923781  0.84925441     0.41990
Cu178      Cu  0.73055969  0.73199879  0.89971946     0.43880
N179        N  0.76779030  0.77275176  0.88976623    -0.34360
N180        N  0.76013977  0.75975695  0.90414732    -0.28610
C181        C  0.77557021  0.76687394  0.92128406    -0.04710
C182        C  0.79363475  0.78523612  0.91744264     0.07510
C183        C  0.78831254  0.78849290  0.89736679     0.01300
H184        H  0.77430681  0.75886269  0.93539508     0.08950
H185        H  0.79912254  0.80092159  0.88886019     0.08030
N186        N  0.70172841  0.70446153  0.89147631    -0.35800
N187        N  0.69034535  0.69992279  0.87310631    -0.27980
C188        C  0.67352272  0.68048322  0.87270176    -0.03220
C189        C  0.67431183  0.67226745  0.89176294     0.05390
C190        C  0.69254006  0.68800544  0.90324356     0.03480
H191        H  0.66195101  0.67276732  0.85940327     0.08590
H192        H  0.69970865  0.68719899  0.91889404     0.07420
N193        N  0.99622934  0.83986922  0.03621404    -0.26970
N194        N  0.00818993  0.86006542  0.04278503    -0.34830
C195        C  0.03334269  0.85570626  0.05509160     0.01370
C196        C  0.03716146  0.83166035  0.05644777     0.07400
C197        C  0.01329495  0.82209127  0.04437495    -0.05700
H198        H  0.04774771  0.86904935  0.06249264     0.08060
H199        H  0.00896111  0.80363799  0.04143407     0.09260
Cu200      Cu  0.99014750  0.89273274  0.03481709     0.44170
Cu201      Cu  0.95819393  0.83743119  0.01565873     0.41990
Cu202      Cu  0.92421850  0.89291300  0.99886279     0.43880
N203        N  0.96851377  0.92316761  0.02413571    -0.34360
N204        N  0.94464155  0.92321038  0.01068679    -0.28610
C205        C  0.93648159  0.94555695  0.00639348    -0.04710
C206        C  0.95613590  0.96034495  0.01774986     0.07510
C207        C  0.97605196  0.94550150  0.02890876     0.01300
H208        H  0.91736595  0.95056955  0.99598579     0.08950
H209        H  0.99495276  0.95054155  0.03947637     0.08030
N210        N  0.90827947  0.86045805  0.98867815    -0.35800
N211        N  0.92090955  0.84021001  0.99449085    -0.27980
C212        C  0.90571104  0.82264262  0.98455608    -0.03220
C213        C  0.88229043  0.83231768  0.97195113     0.05390
C214        C  0.88457087  0.85632403  0.97505916     0.03480
H215        H  0.91114117  0.80419970  0.98659537     0.08590
H216        H  0.87038146  0.86987166  0.96769473     0.07420
N217        N  0.92145817  0.18227514  0.99501857    -0.26970
N218        N  0.90958292  0.16202285  0.98853647    -0.34830
C219        C  0.88581844  0.16626968  0.97495633     0.01370
C220        C  0.88247603  0.19030528  0.97298720     0.07400
C221        C  0.90538800  0.19998420  0.98583624    -0.05700
H222        H  0.87209259  0.15286017  0.96706616     0.08060
H223        H  0.91034133  0.21847011  0.98808066     0.09260
Cu224      Cu  0.92582473  0.12949555  0.99848252     0.44170
Cu225      Cu  0.95950246  0.18479797  0.01553147     0.41990
Cu226      Cu  0.98755898  0.12972118  0.03777881     0.43880
N227        N  0.94469931  0.09923659  0.01162052    -0.34360
N228        N  0.96698872  0.09929973  0.02624010    -0.28610
C229        C  0.97414246  0.07697245  0.03138790    -0.04710
C230        C  0.95539645  0.06207586  0.01942338     0.07510
C231        C  0.93708868  0.07688365  0.00703306     0.01300
H232        H  0.99226510  0.07206206  0.04261144     0.08950
H233        H  0.91944892  0.07183763  0.99552728     0.08030
N234        N  0.00685909  0.16215349  0.04483594    -0.35800
N235        N  0.99730324  0.18213198  0.03625403    -0.27980
C236        C  0.01574768  0.19959069  0.04330126    -0.03220
C237        C  0.03767405  0.19009370  0.05705959     0.05390
C238        C  0.03136620  0.16640521  0.05776446     0.03480
H239        H  0.01323685  0.21782875  0.03885821     0.08590
H240        H  0.04394447  0.15316751  0.06673227     0.07420
N241        N  0.22760402  0.28260541  0.18721147    -0.26970
N242        N  0.21142829  0.26336702  0.18414768    -0.34830
C243        C  0.20905363  0.25322828  0.20147324     0.01370
C244        C  0.22432581  0.26682829  0.21636322     0.07400
C245        C  0.23593547  0.28527600  0.20664074    -0.05700
H246        H  0.19699117  0.23712690  0.20290057     0.08060
H247        H  0.24890478  0.29992769  0.21317102     0.09260
Cu248      Cu  0.19147187  0.25281664  0.15664998     0.44170
Cu249      Cu  0.23658100  0.30437986  0.16458621     0.41990
Cu250      Cu  0.20557896  0.28702378  0.11464531     0.43880
N251        N  0.16929955  0.24796134  0.12853743    -0.34360
N252        N  0.17436886  0.26025411  0.11308530    -0.28610
C253        C  0.15473339  0.25376027  0.09746882    -0.04710
C254        C  0.13621507  0.23673305  0.10346004     0.07510
C255        C  0.14634793  0.23342231  0.12323467     0.01300
H256        H  0.15328981  0.26156849  0.08302590     0.08950
H257        H  0.13760817  0.22151558  0.13320772     0.08030
N258        N  0.23282989  0.31603182  0.12135215    -0.35800
N259        N  0.24299942  0.32276115  0.13947592    -0.27980
C260        C  0.25729232  0.34334654  0.13881185    -0.03220
C261        C  0.25624776  0.34984858  0.11935894     0.05390
C262        C  0.24076610  0.33203624  0.10868250     0.03480
H263        H  0.26747866  0.35295061  0.15158792     0.08590
H264        H  0.23453740  0.33130560  0.09292047     0.07420
N265        N  0.28916543  0.25770965  0.40342670    -0.26970
N266        N  0.29229502  0.27176761  0.38860156    -0.34830
C267        C  0.31333262  0.28777328  0.39459897     0.01370
C268        C  0.32403563  0.28367505  0.41422839     0.07400
C269        C  0.30810627  0.26439787  0.41928929    -0.05700
H270        H  0.32055302  0.30117390  0.38520310     0.08060
H271        H  0.31078246  0.25520700  0.43318796     0.09260
Cu272      Cu  0.26950773  0.26733474  0.36055645     0.44170
Cu273      Cu  0.26044131  0.22933829  0.40096602     0.41990
Cu274      Cu  0.21821526  0.21834902  0.35279049     0.43880
N275        N  0.24810346  0.25724175  0.33323885    -0.34360
N276        N  0.22978063  0.23920458  0.33026994    -0.28610
C277        C  0.22140381  0.23657340  0.31083998    -0.04710
C278        C  0.23511611  0.25380130  0.30098858     0.07510
C279        C  0.25173285  0.26664229  0.31585231     0.01300
H280        H  0.20690880  0.22271073  0.30442588     0.08950
H281        H  0.26562464  0.28172477  0.31442116     0.08030
N282        N  0.21379935  0.19875337  0.37771906    -0.35800
N283        N  0.23007783  0.20229800  0.39500961    -0.27980
C284        C  0.22394274  0.18552492  0.40757031    -0.03220
C285        C  0.20246217  0.17089919  0.39783683     0.05390
C286        C  0.19646907  0.17980829  0.37894662     0.03480
H287        H  0.23456930  0.18396215  0.42263255     0.08590
H288        H  0.18164271  0.17244363  0.36676692     0.07420
N289        N  0.32088133  0.55919407  0.07242215    -0.26970
N290        N  0.30583602  0.54748349  0.08430014    -0.34830
C291        C  0.29170349  0.56293167  0.09442777     0.01370
C292        C  0.29777624  0.58535349  0.08836325     0.07400
C293        C  0.31627642  0.58238887  0.07439577    -0.05700
H294        H  0.27796967  0.55819243  0.10535256     0.08060
H295        H  0.32636968  0.59607712  0.06668927     0.09260
Cu296      Cu  0.30488910  0.51102943  0.08596358     0.44170
Cu297      Cu  0.34874161  0.54311186  0.05527548     0.41990
Cu298      Cu  0.35078008  0.47921800  0.05640347     0.43880
N299        N  0.30673191  0.47458488  0.08462154    -0.34360
N300        N  0.32366697  0.46295615  0.07396405    -0.28610
C301        C  0.32015771  0.43973622  0.07655873    -0.04710
C302        C  0.29976507  0.43643917  0.08942022     0.07510
C303        C  0.29183416  0.45907281  0.09418202     0.01300
H304        H  0.33214964  0.42643541  0.06977359     0.08950
H305        H  0.27623342  0.46406179  0.10382128     0.08030
N306        N  0.37672914  0.49968820  0.04078340    -0.35800
N307        N  0.37655374  0.52295600  0.04079818    -0.27980
C308        C  0.39721736  0.53079720  0.03033377    -0.03220
C309        C  0.41065097  0.51153265  0.02323517     0.05390
C310        C  0.39718252  0.49210046  0.03005725     0.03480
H311        H  0.40216788  0.54912869  0.02814210     0.08590
H312        H  0.40241622  0.47383129  0.02786650     0.07420
N313        N  0.13361848  0.96259636  0.44234475    -0.26970
N314        N  0.15094524  0.97438942  0.43201252    -0.34830
C315        C  0.16548334  0.95906643  0.42206027     0.01370
C316        C  0.15708915  0.93652425  0.42646584     0.07400
C317        C  0.13702310  0.93941765  0.43949048    -0.05700
H318        H  0.18121855  0.96400577  0.41247484     0.08060
H319        H  0.12520261  0.92572162  0.44602882     0.09260
Cu320      Cu  0.15403496  0.01075198  0.43180782     0.44170
Cu321      Cu  0.10498888  0.97870912  0.45887854     0.41990
Cu322      Cu  0.10458440  0.04275514  0.45850412     0.43880
N323        N  0.15182498  0.04713809  0.43255662    -0.34360
N324        N  0.13277390  0.05887703  0.44157374    -0.28610
C325        C  0.13576006  0.08203545  0.43831057    -0.04710
C326        C  0.15812977  0.08494552  0.42700837     0.07510
C327        C  0.16788050  0.06250857  0.42366829     0.01300
H328        H  0.12298831  0.09573671  0.44403635     0.08950
H329        H  0.18498815  0.05768019  0.41509151     0.08030
N330        N  0.07883357  0.02234384  0.47435927    -0.35800
N331        N  0.07815636  0.99909340  0.47387479    -0.27980
C332        C  0.05791689  0.99138564  0.48472309    -0.03220
C333        C  0.04573060  0.01069118  0.49269491     0.05390
C334        C  0.05948840  0.03002707  0.48587332     0.03480
H335        H  0.05262550  0.97308614  0.48675988     0.08590
H336        H  0.05514721  0.04833510  0.48859896     0.07420
N337        N  0.17329346  0.76124452  0.11285668    -0.26970
N338        N  0.16586982  0.77191880  0.12845184    -0.34830
C339        C  0.14266884  0.78617255  0.12283185     0.01370
C340        C  0.13534008  0.78467850  0.10269235     0.07400
C341        C  0.15524370  0.76877733  0.09679615    -0.05700
H342        H  0.13171799  0.79663768  0.13272447     0.08060
H343        H  0.15566019  0.76231994  0.08207826     0.09260
Cu344      Cu  0.18638922  0.76603308  0.15683284     0.44170
Cu345      Cu  0.20501270  0.73476250  0.11468839     0.41990
Cu346      Cu  0.23648810  0.71724465  0.16458108     0.43880
N347        N  0.20761061  0.75621885  0.18422837    -0.34360
N348        N  0.22580897  0.73809479  0.18723915    -0.28610
C349        C  0.23478506  0.73576582  0.20664642    -0.04710
C350        C  0.22146797  0.75325895  0.21637932     0.07510
C351        C  0.20455434  0.76597434  0.20155011     0.01300
H352        H  0.24937615  0.72197014  0.21316825     0.08950
H353        H  0.19096665  0.78124723  0.20302799     0.08030
N354        N  0.24329379  0.69923550  0.13942634    -0.35800
N355        N  0.23248679  0.70577552  0.12137142    -0.27980
C356        C  0.24030994  0.68979352  0.10871308    -0.03220
C357        C  0.25684204  0.67213954  0.11923041     0.05390
C358        C  0.25811099  0.67889768  0.13873101     0.03480
H359        H  0.23372416  0.69082775  0.09301529     0.08590
H360        H  0.26800345  0.66955249  0.15169308     0.07420
N361        N  0.28698049  0.76278806  0.40301722    -0.26970
N362        N  0.28981484  0.74863833  0.38822351    -0.34830
C363        C  0.31137420  0.73294739  0.39402656     0.01370
C364        C  0.32292432  0.73754025  0.41338738     0.07400
C365        C  0.30679248  0.75656032  0.41862367    -0.05700
H366        H  0.31878491  0.71970285  0.38459330     0.08060
H367        H  0.30917817  0.76530339  0.43268774     0.09260
Cu368      Cu  0.26639058  0.75264602  0.36031309     0.44170
Cu369      Cu  0.25725370  0.79053201  0.40097254     0.41990
Cu370      Cu  0.21809504  0.80324725  0.35224353     0.43880
N371        N  0.24548157  0.76299169  0.33291513    -0.34360
N372        N  0.22810180  0.78162558  0.32986698    -0.28610
C373        C  0.21967380  0.78430154  0.31044180    -0.04710
C374        C  0.23251863  0.76656177  0.30072500     0.07510
C375        C  0.24858356  0.75331171  0.31555970     0.01300
H376        H  0.20588870  0.79855578  0.30389335     0.08950
H377        H  0.26171937  0.73778854  0.31402799     0.08030
N378        N  0.21324209  0.82267128  0.37706479    -0.35800
N379        N  0.22733413  0.81790310  0.39481105    -0.27980
C380        C  0.22015243  0.83416038  0.40744734    -0.03220
C381        C  0.20059462  0.85002913  0.39718515     0.05390
C382        C  0.19680437  0.84216645  0.37793675     0.03480
H383        H  0.22953981  0.83485262  0.42279656     0.08590
H384        H  0.18338509  0.85017139  0.36539453     0.07420
C385        C  0.20553458  0.77236653  0.26673553    -0.20990
C386        C  0.22999603  0.76308012  0.27916912    -0.09030
C387        C  0.25174295  0.75076700  0.27071868     0.29830
C388        C  0.24878155  0.74776941  0.25037795    -0.20990
C389        C  0.22424317  0.75697415  0.23793843    -0.09040
C390        C  0.20255337  0.76935833  0.24640706     0.29840
F391        F  0.17788056  0.77798534  0.23526852    -0.19560
H392        H  0.18824626  0.78167373  0.27275387     0.18200
H393        H  0.26607426  0.73845855  0.24437092     0.18210
F394        F  0.27639136  0.74216924  0.28191402    -0.19550
C395        C  0.18203016  0.89123358  0.39217205    -0.20990
C396        C  0.18845088  0.87180479  0.40471790    -0.09030
C397        C  0.18357737  0.87365585  0.42437902     0.29830
C398        C  0.17283658  0.89462913  0.43126162    -0.20990
C399        C  0.16727785  0.91419779  0.41882154    -0.09040
C400        C  0.17173896  0.91227783  0.39914160     0.29840
F401        F  0.16555360  0.93057052  0.38651061    -0.19560
H402        H  0.18552626  0.89034041  0.37698890     0.18200
H403        H  0.16938860  0.89572755  0.44645754     0.18210
F404        F  0.18865889  0.85515272  0.43689398    -0.19550
C405        C  0.29675346  0.61353924  0.11572187    -0.20990
C406        C  0.28795829  0.60768720  0.09601163    -0.09030
C407        C  0.26980830  0.62320010  0.08379770     0.29830
C408        C  0.25995342  0.64407710  0.09140962    -0.20990
C409        C  0.26846437  0.65012684  0.11129697    -0.09040
C410        C  0.28760484  0.63466810  0.12328837     0.29840
F411        F  0.29809552  0.63986396  0.14222844    -0.19560
H412        H  0.31116285  0.60183718  0.12522031     0.18200
H413        H  0.24534438  0.65526987  0.08164913     0.18210
F414        F  0.26085117  0.61779468  0.06465217    -0.19550
C415        C  0.21022706  0.13338441  0.41655163    -0.20990
C416        C  0.19073212  0.14916545  0.40551436    -0.09030
C417        C  0.16030876  0.14390537  0.40188505     0.29830
C418        C  0.14964761  0.12320413  0.40936262    -0.20990
C419        C  0.16929854  0.10717749  0.41994470    -0.09040
C420        C  0.19970238  0.11235711  0.42345541     0.29840
F421        F  0.21911385  0.09727773  0.43387149    -0.19560
H422        H  0.23374369  0.13712893  0.41947387     0.18200
H423        H  0.12613316  0.11941937  0.40654633     0.18210
F424        F  0.14088371  0.15898489  0.39148832    -0.19550
C425        C  0.27488640  0.41412194  0.11376415    -0.20990
C426        C  0.28894370  0.41393388  0.09691151    -0.09030
C427        C  0.29199955  0.39222369  0.08747759     0.29830
C428        C  0.28113467  0.37148962  0.09478207    -0.20990
C429        C  0.26744815  0.37184796  0.11170177    -0.09040
C430        C  0.26429342  0.39338515  0.12110279     0.29840
F431        F  0.25005803  0.39455910  0.13702975    -0.19560
H432        H  0.27212285  0.43033538  0.12147429     0.18200
H433        H  0.28367459  0.35503939  0.08729143     0.18210
F434        F  0.30484612  0.39085896  0.07099144    -0.19550
C435        C  0.24995168  0.27427633  0.25051651    -0.20990
C436        C  0.22711919  0.26308963  0.23796102    -0.09030
C437        C  0.20710421  0.24878153  0.24636648     0.29830
C438        C  0.20995952  0.24595365  0.26672769    -0.20990
C439        C  0.23273492  0.25720303  0.27932668    -0.09040
C440        C  0.25287232  0.27140202  0.27087875     0.29840
F441        F  0.27590180  0.28221994  0.28204178    -0.19560
H442        H  0.26599944  0.28513108  0.24459919     0.18200
H443        H  0.19383145  0.23512924  0.27257243     0.18210
F444        F  0.18411076  0.23798909  0.23512937    -0.19550
C445        C  0.11008682  0.22216451  0.07123318    -0.20990
C446        C  0.11049424  0.22525491  0.09151822    -0.09030
C447        C  0.08619604  0.21720626  0.10016681     0.29830
C448        C  0.06258027  0.20571944  0.08881519    -0.20990
C449        C  0.06246885  0.20250472  0.06868014    -0.09040
C450        C  0.08622859  0.21089606  0.05986998     0.29840
F451        F  0.08669415  0.20759440  0.04041082    -0.19560
H452        H  0.12848841  0.22809403  0.06421657     0.18200
H453        H  0.04414552  0.19953837  0.09570027     0.18210
F454        F  0.08469688  0.22101591  0.11942689    -0.19550
C455        C  0.08973210  0.81872475  0.06159216    -0.20990
C456        C  0.06194378  0.81904406  0.06794949    -0.09030
C457        C  0.05822745  0.80781545  0.08555349     0.29830
C458        C  0.08231050  0.79675640  0.09686816    -0.20990
C459        C  0.11014034  0.79623854  0.09048082    -0.09040
C460        C  0.11365996  0.80713010  0.07264569     0.29840
F461        F  0.14043035  0.80728963  0.06629645    -0.19560
H462        H  0.09283716  0.82745747  0.04805473     0.18200
H463        H  0.07917844  0.78837403  0.11054643     0.18210
F464        F  0.03148269  0.80796337  0.09194688    -0.19550
C465        C  0.94568106  0.02399056  0.00165275    -0.20990
C466        C  0.95556501  0.03602034  0.01919799    -0.09030
C467        C  0.96555450  0.02290853  0.03625950     0.29830
C468        C  0.96583509  0.99833599  0.03561605    -0.20990
C469        C  0.95589649  0.98635161  0.01807781    -0.09040
C470        C  0.94585149  0.99943231  0.00103616     0.29840
F471        F  0.93716901  0.98858847  0.98360289    -0.19560
H472        H  0.93828335  0.03360187  0.98823491     0.18200
H473        H  0.97332727  0.98864527  0.04898486     0.18210
F474        F  0.97414883  0.03369839  0.05372182    -0.19550
C475        C  0.84487002  0.78802244  0.93526780    -0.20990
C476        C  0.81606373  0.79712809  0.93148442    -0.09030
C477        C  0.80896931  0.81763790  0.94102758     0.29830
C478        C  0.83065860  0.82901854  0.95416816    -0.20990
C479        C  0.85960389  0.81993061  0.95810733    -0.09040
C480        C  0.86655426  0.79926715  0.94851016     0.29840
F481        F  0.89447418  0.79038429  0.95135286    -0.19560
H482        H  0.85057969  0.77225811  0.92784148     0.18200
H483        H  0.82472283  0.84481543  0.96144228     0.18210
F484        F  0.78109764  0.82660564  0.93762644    -0.19550
C485        C  0.72259969  0.74321379  0.74494572    -0.20990
C486        C  0.72918761  0.76565502  0.73818613    -0.09030
C487        C  0.73439628  0.78413834  0.75183872     0.29830
C488        C  0.73315929  0.78009778  0.77172311    -0.20990
C489        C  0.72655792  0.75766983  0.77848034    -0.09040
C490        C  0.72134382  0.73917858  0.76483993     0.29840
F491        F  0.71599968  0.71700057  0.77069817    -0.19560
H492        H  0.71886321  0.72857617  0.73485803     0.18200
H493        H  0.73689340  0.79473712  0.78180978     0.18210
F494        F  0.73970665  0.80633365  0.74601279    -0.19550
C495        C  0.48694376  0.51883183  0.00925202    -0.20990
C496        C  0.48199794  0.51206864  0.98948395    -0.09030
C497        C  0.45348854  0.50521096  0.98081585     0.29830
C498        C  0.43021526  0.50498232  0.99192632    -0.20990
C499        C  0.43520440  0.51167263  0.01170781    -0.09040
C500        C  0.46370045  0.51851631  0.02037511     0.29840
F501        F  0.46911965  0.52430978  0.03967886    -0.19560
H502        H  0.50891085  0.52396781  0.01611805     0.18200
H503        H  0.40824949  0.49981132  0.98508319     0.18210
F504        F  0.44808184  0.49932529  0.96153024    -0.19550
C505        C  0.64290531  0.62627238  0.92328347    -0.20990
C506        C  0.63552161  0.60807773  0.90971701    -0.09030
C507        C  0.64007047  0.61139807  0.89017186     0.29830
C508        C  0.65233936  0.63235857  0.88447604    -0.20990
C509        C  0.66045368  0.65044957  0.89811214    -0.09040
C510        C  0.65536223  0.64721715  0.91764108     0.29840
F511        F  0.66188555  0.66430397  0.93130189    -0.19560
H512        H  0.63949137  0.62412886  0.93841212     0.18200
H513        H  0.65585803  0.63418435  0.86936253     0.18210
F514        F  0.63206317  0.59461878  0.87642400    -0.19550
C515        C  0.99629946  0.99742694  0.49939774    -0.20990
C516        C  0.02202555  0.01072130  0.50501998    -0.09030
C517        C  0.02467544  0.02419990  0.52224953     0.29830
C518        C  0.00170204  0.02445803  0.53360179    -0.20990
C519        C  0.97593592  0.01116766  0.52798339    -0.09040
C520        C  0.97328862  0.99773454  0.51070568     0.29840
F521        F  0.94805092  0.98562884  0.50438214    -0.19560
H522        H  0.99379567  0.98718819  0.48600763     0.18200
H523        H  0.00423094  0.03472357  0.54697580     0.18210
F524        F  0.04984421  0.03646686  0.52841378    -0.19550
C525        C  0.82131465  0.89464060  0.59575716    -0.20990
C526        C  0.81942474  0.91533752  0.60665306    -0.09030
C527        C  0.80655030  0.91414196  0.62400113     0.29830
C528        C  0.79560504  0.89282487  0.63005091    -0.20990
C529        C  0.79699341  0.87229600  0.61895022    -0.09040
C530        C  0.81014275  0.87334613  0.60176089     0.29840
F531        F  0.81285008  0.85372111  0.59098743    -0.19560
H532        H  0.83114174  0.89493128  0.58238949     0.18200
H533        H  0.78559368  0.89248604  0.64335276     0.18210
F534        F  0.80504846  0.93334852  0.63545400    -0.19550
C535        C  0.65280045  0.37452765  0.91650709    -0.20990
C536        C  0.66126689  0.37302595  0.89774646    -0.09030
C537        C  0.65738841  0.39284210  0.88532945     0.29830
C538        C  0.64532923  0.41355575  0.89161461    -0.20990
C539        C  0.63667992  0.41500683  0.91028867    -0.09040
C540        C  0.64050866  0.39524271  0.92273542     0.29840
F541        F  0.63334689  0.39611505  0.94114566    -0.19560
H542        H  0.65559390  0.35959479  0.92638997     0.18200
H543        H  0.64262395  0.42850488  0.88174534     0.18210
F544        F  0.66614018  0.39263564  0.86735674    -0.19550
C545        C  0.86445826  0.20497324  0.93947341    -0.20990
C546        C  0.86034637  0.20282942  0.95911750    -0.09030
C547        C  0.83499872  0.21244463  0.96529137     0.29830
C548        C  0.81383725  0.22400377  0.95181396    -0.20990
C549        C  0.81769738  0.22610485  0.93200000    -0.09040
C550        C  0.84346573  0.21662432  0.92599034     0.29840
F551        F  0.84897722  0.21919786  0.90729086    -0.19560
H552        H  0.88412541  0.19776598  0.93462444     0.18200
H553        H  0.79422316  0.23101750  0.95684140     0.18210
F554        F  0.83054178  0.21031485  0.98426189    -0.19550
C555        C  0.81073401  0.15070505  0.60231995    -0.20990
C556        C  0.79714019  0.15096595  0.61931627    -0.09030
C557        C  0.79558211  0.12992989  0.62989629     0.29830
C558        C  0.80749535  0.10917286  0.62358737    -0.20990
C559        C  0.82139480  0.10889317  0.60671927    -0.09040
C560        C  0.82295644  0.12994205  0.59610508     0.29840
F561        F  0.83543893  0.13040517  0.57942089    -0.19560
H562        H  0.81209950  0.16666895  0.59389556     0.18200
H563        H  0.80596581  0.09327685  0.63205675     0.18210
F564        F  0.78166361  0.12914011  0.64597535    -0.19550
C565        C  0.70753380  0.27090807  0.74451246    -0.20990
C566        C  0.73098962  0.25789920  0.73874616    -0.09030
C567        C  0.75276012  0.24868089  0.75344056     0.29830
C568        C  0.75079633  0.25229946  0.77327609    -0.20990
C569        C  0.72726682  0.26522729  0.77903431    -0.09040
C570        C  0.70558703  0.27454517  0.76433843     0.29840
F571        F  0.68191376  0.28659965  0.76893586    -0.19560
H572        H  0.69017130  0.27799722  0.73368820     0.18200
H573        H  0.76812575  0.24519575  0.78412086     0.18210
F574        F  0.77645188  0.23666022  0.74883063    -0.19550
C575        C  0.36989845  0.30831631  0.41749936    -0.20990
C576        C  0.34868938  0.29613314  0.42651658    -0.09030
C577        C  0.35161847  0.29591320  0.44718339     0.29830
C578        C  0.37555045  0.30722351  0.45841708    -0.20990
C579        C  0.39646398  0.31943721  0.44930781    -0.09040
C580        C  0.39345784  0.31997998  0.42875338     0.29840
F581        F  0.41382260  0.33117885  0.41956849    -0.19560
H582        H  0.36857419  0.30859767  0.40168776     0.18200
H583        H  0.37736284  0.30695468  0.47427603     0.18210
F584        F  0.33096975  0.28550395  0.45660412    -0.19550
C585        C  0.62695284  0.32440965  0.55901158    -0.20990
C586        C  0.59704916  0.31948640  0.56001831    -0.09030
C587        C  0.58992199  0.30300560  0.57380543     0.29830
C588        C  0.61243359  0.29210538  0.58668852    -0.20990
C589        C  0.64227170  0.29692322  0.58557006    -0.09040
C590        C  0.64947815  0.31292189  0.57149202     0.29840
F591        F  0.67822139  0.31798680  0.57028271    -0.19560
H592        H  0.63283541  0.33705867  0.54845944     0.18200
H593        H  0.60661111  0.27982205  0.59753703     0.18210
F594        F  0.56123286  0.29815416  0.57534447    -0.19550
C595        C  0.39050120  0.72464302  0.45113587    -0.20990
C596        C  0.39567241  0.70069547  0.44766702    -0.09030
C597        C  0.37633381  0.68914292  0.43277283     0.29830
C598        C  0.35277952  0.70126548  0.42187570    -0.20990
C599        C  0.34774127  0.72508086  0.42544311    -0.09040
C600        C  0.36692588  0.73672625  0.44018118     0.29840
F601        F  0.36367867  0.76000392  0.44360808    -0.19560
H602        H  0.40467330  0.73427258  0.46231027     0.18200
H603        H  0.33830898  0.69187310  0.41063146     0.18210
F604        F  0.38002578  0.66625009  0.42830286    -0.19550
C605        C  0.62751726  0.69393412  0.56219664    -0.20990
C606        C  0.59848441  0.70290367  0.55864261    -0.09030
C607        C  0.59184196  0.72371254  0.56815819     0.29830
C608        C  0.61382365  0.73505250  0.58112671    -0.20990
C609        C  0.64269065  0.72600614  0.58459351    -0.09040
C610        C  0.64953702  0.70547887  0.57497407     0.29840
F611        F  0.67739417  0.69646582  0.57816325    -0.19560
H612        H  0.63322250  0.67803161  0.55497269     0.18200
H613        H  0.60828314  0.75081521  0.58862215     0.18210
F614        F  0.56391814  0.73258751  0.56557714    -0.19550
C615        C  0.50630067  0.52312099  0.51665691    -0.20990
C616        C  0.50355002  0.53538310  0.49878873    -0.09030
C617        C  0.49969798  0.52270327  0.48109387     0.29830
C618        C  0.49860633  0.49814042  0.48135675    -0.20990
C619        C  0.50156017  0.48586604  0.49922860    -0.09040
C620        C  0.50514356  0.49856393  0.51692138     0.29840
F621        F  0.50658378  0.48729641  0.53442474    -0.19560
H622        H  0.50880417  0.53260203  0.53042911     0.18200
H623        H  0.49614418  0.48866811  0.46758277     0.18210
F624        F  0.49809911  0.53399686  0.46359327    -0.19550
loop_ 
_geom_bond_atom_site_label_1 
_geom_bond_atom_site_label_2 
_geom_bond_distance 
_geom_bond_site_symmetry_2 
_ccdc_geom_bond_type 
N1            N2   1.319       .  A
N1            C5   1.345       .  A
N1           Cu9   2.077       .  S
N2            C3   1.342       .  A
N2           Cu8   2.065       .  S
C3            C4   1.390       .  A
C3            H6   1.077       .  S
C4            C5   1.392       .  A
C4          C596   1.494       .  S
C5            H7   1.080       .  S
Cu8          N11   2.065       .  S
Cu9          N19   2.078       .  S
Cu10         N12   2.073       .  S
Cu10         N18   2.073       .  S
N11          N12   1.321       .  A
N11          C15   1.343       .  A
N12          C13   1.345       .  A
C13          C14   1.385       .  A
C13          H16   1.082       .  S
C14          C15   1.383       .  A
C14         C616   1.475       .  S
C15          H17   1.082       .  S
N18          N19   1.323       .  A
N18          C22   1.344       .  A
N19          C20   1.346       .  A
C20          C21   1.386       .  A
C20          H23   1.082       .  S
C21          C22   1.384       .  A
C21         C606   1.480       .  S
C22          H24   1.082       .  S
N25          N26   1.321       .  A
N25          C29   1.345       .  A
N25         Cu33   2.073       .  S
N26          C27   1.343       .  A
N26         Cu32   2.066       .  S
C27          C28   1.383       .  A
C27          H30   1.082       .  S
C28          C29   1.385       .  A
C28         C619   1.475       .  S
C29          H31   1.082       .  S
Cu32         N35   2.066       .  S
Cu33         N43   2.073       .  S
Cu34         N36   2.076       .  S
Cu34         N42   2.076       .  S
N35          N36   1.322       .  A
N35          C39   1.344       .  A
N36          C37   1.346       .  A
C37          C38   1.384       .  A
C37          H40   1.082       .  S
C38          C39   1.382       .  A
C38         C586   1.474       .  S
C39          H41   1.082       .  S
N42          N43   1.323       .  A
N42          C46   1.345       .  A
N43          C44   1.344       .  A
C44          C45   1.382       .  A
C44          H47   1.082       .  S
C45          C46   1.382       .  A
C45         C579   1.472       .  S
C46          H48   1.082       .  S
N49          N50   1.319       .  A
N49          C53   1.345       .  A
N49         Cu57   2.071       .  S
N50          C51   1.343       .  A
N50         Cu56   2.069       .  S
C51          C52   1.388       .  A
C51          H54   1.081       .  S
C52          C53   1.390       .  A
C52         C566   1.488       .  S
C53          H55   1.080       .  S
Cu56         N59   2.069       .  S
Cu57         N67   2.071       .  S
Cu58         N60   2.078       .  S
Cu58         N66   2.079       .  S
N59          N60   1.323       .  A
N59          C63   1.343       .  A
N60          C61   1.347       .  A
C61          C62   1.383       .  A
C61          H64   1.082       .  S
C62          C63   1.380       .  A
C62         C589   1.469       .  S
C63          H65   1.082       .  S
N66          N67   1.322       .  A
N66          C70   1.346       .  A
N67          C68   1.343       .  A
C68          C69   1.384       .  A
C68          H71   1.081       .  S
C69          C70   1.386       .  A
C69         C556   1.480       .  S
C70          H72   1.082       .  S
N73          N74   1.320       .  A
N73          C77   1.344       .  A
N73         Cu81   2.071       .  S
N74          C75   1.344       .  A
N74         Cu80   2.070       .  S
C75          C76   1.388       .  A
C75          H78   1.081       .  S
C76          C77   1.389       .  A
C76         C569   1.488       .  S
C77          H79   1.080       .  S
Cu80         N83   2.071       .  S
Cu81         N91   2.071       .  S
Cu82         N84   2.075       .  S
Cu82         N90   2.075       .  S
N83          N84   1.322       .  A
N83          C87   1.343       .  A
N84          C85   1.345       .  A
C85          C86   1.387       .  A
C85          H88   1.082       .  S
C86          C87   1.386       .  A
C86         C549   1.483       .  S
C87          H89   1.081       .  S
N90          N91   1.322       .  A
N90          C94   1.345       .  A
N91          C92   1.343       .  A
C92          C93   1.386       .  A
C92          H95   1.081       .  S
C93          C94   1.387       .  A
C93         C536   1.483       .  S
C94          H96   1.082       .  S
N97          N98   1.321       .  A
N97         C101   1.346       .  A
N97        Cu105   2.072       .  S
N98          C99   1.343       .  A
N98        Cu104   2.072       .  S
C99         C100   1.386       .  A
C99         H102   1.082       .  S
C100        C101   1.387       .  A
C100        C559   1.482       .  S
C101        H103   1.082       .  S
Cu104       N107   2.072   1_545  S
Cu105       N115   2.072       .  S
Cu106       N108   2.073       .  S
Cu106       N114   2.073   1_565  S
N107        N108   1.321       .  A
N107        C111   1.344       .  A
N108        C109   1.345       .  A
C109        C110   1.388       .  A
C109        H112   1.082       .  S
C110        C111   1.388       .  A
C110        C526   1.486       .  S
C111        H113   1.081       .  S
N114        N115   1.323       .  A
N114        C118   1.344   1_545  A
N115        C116   1.345       .  A
C116        C117   1.382       .  A
C116        H119   1.082       .  S
C117        C118   1.383   1_545  A
C117        C519   1.473       .  S
C118        H120   1.081       .  S
N121        N122   1.322       .  A
N121        C125   1.345       .  A
N121       Cu129   2.072       .  S
N122        C123   1.344       .  A
N122       Cu128   2.072       .  S
C123        C124   1.384       .  A
C123        H126   1.082       .  S
C124        C125   1.385       .  A
C124        C506   1.478       .  S
C125        H127   1.082       .  S
Cu128       N131   2.072       .  S
Cu129       N139   2.072       .  S
Cu130       N132   2.071       .  S
Cu130       N138   2.071       .  S
N131        N132   1.321       .  A
N131        C135   1.343       .  A
N132        C133   1.345       .  A
C133        C134   1.386       .  A
C133        H136   1.082       .  S
C134        C135   1.385       .  A
C134        C539   1.480       .  S
C135        H137   1.082       .  S
N138        N139   1.323       .  A
N138        C142   1.344       .  A
N139        C140   1.345       .  A
C140        C141   1.380       .  A
C140        H143   1.082       .  S
C141        C142   1.380       .  A
C141        C496   1.467       .  S
C142        H144   1.082       .  S
N145        N146   1.321       .  A
N145        C149   1.345       .  A
N145       Cu153   2.073       .  S
N146        C147   1.344       .  A
N146       Cu152   2.073       .  S
C147        C148   1.387       .  A
C147        H150   1.082       .  S
C148        C149   1.388       .  A
C148        C486   1.485       .  S
C149        H151   1.081       .  S
Cu152       N155   2.073       .  S
Cu153       N163   2.073       .  S
Cu154       N156   2.076       .  S
Cu154       N162   2.076       .  S
N155        N156   1.323       .  A
N155        C159   1.345       .  A
N156        C157   1.346       .  A
C157        C158   1.381       .  A
C157        H160   1.082       .  S
C158        C159   1.380       .  A
C158        C609   1.468       .  S
C159        H161   1.082       .  S
N162        N163   1.322       .  A
N162        C166   1.346       .  A
N163        C164   1.344       .  A
C164        C165   1.385       .  A
C164        H167   1.082       .  S
C165        C166   1.386       .  A
C165        C529   1.480       .  S
C166        H168   1.082       .  S
N169        N170   1.321       .  A
N169        C173   1.345       .  A
N169       Cu177   2.075       .  S
N170        C171   1.344       .  A
N170       Cu176   2.073       .  S
C171        C172   1.386       .  A
C171        H174   1.082       .  S
C172        C173   1.387       .  A
C172        C489   1.484       .  S
C173        H175   1.081       .  S
Cu176       N179   2.073       .  S
Cu177       N187   2.075       .  S
Cu178       N180   2.071       .  S
Cu178       N186   2.071       .  S
N179        N180   1.323       .  A
N179        C183   1.345       .  A
N180        C181   1.345       .  A
C181        C182   1.380       .  A
C181        H184   1.082       .  S
C182        C183   1.380       .  A
C182        C476   1.466       .  S
C183        H185   1.082       .  S
N186        N187   1.321       .  A
N186        C190   1.344       .  A
N187        C188   1.344       .  A
C188        C189   1.388       .  A
C188        H191   1.081       .  S
C189        C190   1.388       .  A
C189        C509   1.487       .  S
C190        H192   1.080       .  S
N193        N194   1.323   1_655  A
N193        C197   1.346   1_655  A
N193       Cu201   2.075       .  S
N194        C195   1.344       .  A
N194       Cu200   2.071   1_455  S
C195        C196   1.380       .  A
C195        H198   1.082       .  S
C196        C197   1.381       .  A
C196        C456   1.467       .  S
C197        H199   1.082       .  S
Cu200       N203   2.071       .  S
Cu201       N211   2.076   1_554  S
Cu202       N204   2.069   1_556  S
Cu202       N210   2.069       .  S
N203        N204   1.321       .  A
N203        C207   1.345       .  A
N204        C205   1.344       .  A
C205        C206   1.385       .  A
C205        H208   1.081   1_554  S
C206        C207   1.385       .  A
C206        C469   1.479       .  S
C207        H209   1.082       .  S
N210        N211   1.322       .  A
N210        C214   1.344       .  A
N211        C212   1.345       .  A
C212        C213   1.386       .  A
C212        H215   1.082       .  S
C213        C214   1.384       .  A
C213        C479   1.479       .  S
C214        H216   1.082       .  S
N217        N218   1.323       .  A
N217        C221   1.346       .  A
N217       Cu225   2.074   1_556  S
N218        C219   1.344       .  A
N218       Cu224   2.069       .  S
C219        C220   1.379       .  A
C219        H222   1.082       .  S
C220        C221   1.381       .  A
C220        C546   1.466       .  S
C221        H223   1.082       .  S
Cu224       N227   2.069   1_556  S
Cu225       N235   2.075       .  S
Cu226       N228   2.071       .  S
Cu226       N234   2.071   1_655  S
N227        N228   1.321       .  A
N227        C231   1.344       .  A
N228        C229   1.344       .  A
C229        C230   1.387       .  A
C229        H232   1.081       .  S
C230        C231   1.386       .  A
C230        C466   1.482       .  S
C231        H233   1.082   1_554  S
N234        N235   1.323   1_455  A
N234        C238   1.344       .  A
N235        C236   1.346   1_655  A
C236        C237   1.381       .  A
C236        H239   1.082       .  S
C237        C238   1.380       .  A
C237        C449   1.467       .  S
C238        H240   1.082       .  S
N241        N242   1.320       .  A
N241        C245   1.345       .  A
N241       Cu249   2.077       .  S
N242        C243   1.343       .  A
N242       Cu248   2.067       .  S
C243        C244   1.388       .  A
C243        H246   1.080       .  S
C244        C245   1.390       .  A
C244        C436   1.489       .  S
C245        H247   1.081       .  S
Cu248       N251   2.067       .  S
Cu249       N259   2.077       .  S
Cu250       N252   2.077       .  S
Cu250       N258   2.077       .  S
N251        N252   1.321       .  A
N251        C255   1.342       .  A
N252        C253   1.346       .  A
C253        C254   1.387       .  A
C253        H256   1.082       .  S
C254        C255   1.385       .  A
C254        C446   1.482       .  S
C255        H257   1.081       .  S
N258        N259   1.323       .  A
N258        C262   1.346       .  A
N259        C260   1.344       .  A
C260        C261   1.384       .  A
C260        H263   1.082       .  S
C261        C262   1.384       .  A
C261        C429   1.477       .  S
C262        H264   1.082       .  S
N265        N266   1.320       .  A
N265        C269   1.344       .  A
N265       Cu273   2.070       .  S
N266        C267   1.343       .  A
N266       Cu272   2.070       .  S
C267        C268   1.387       .  A
C267        H270   1.082       .  S
C268        C269   1.388       .  A
C268        C576   1.485       .  S
C269        H271   1.081       .  S
Cu272       N275   2.070       .  S
Cu273       N283   2.071       .  S
Cu274       N276   2.081       .  S
Cu274       N282   2.080       .  S
N275        N276   1.320       .  A
N275        C279   1.343       .  A
N276        C277   1.345       .  A
C277        C278   1.391       .  A
C277        H280   1.081       .  S
C278        C279   1.389       .  A
C278        C439   1.492       .  S
C279        H281   1.080       .  S
N282        N283   1.323       .  A
N282        C286   1.347       .  A
N283        C284   1.344       .  A
C284        C285   1.382       .  A
C284        H287   1.082       .  S
C285        C286   1.385       .  A
C285        C416   1.475       .  S
C286        H288   1.082       .  S
N289        N290   1.323       .  A
N289        C293   1.346       .  A
N289       Cu297   2.073       .  S
N290        C291   1.345       .  A
N290       Cu296   2.077       .  S
C291        C292   1.382       .  A
C291        H294   1.082       .  S
C292        C293   1.382       .  A
C292        C406   1.471       .  S
C293        H295   1.082       .  S
Cu296       N299   2.077       .  S
Cu297       N307   2.073       .  S
Cu298       N300   2.071       .  S
Cu298       N306   2.071       .  S
N299        N300   1.320       .  A
N299        C303   1.344       .  A
N300        C301   1.345       .  A
C301        C302   1.389       .  A
C301        H304   1.080       .  S
C302        C303   1.390       .  A
C302        C426   1.490       .  S
C303        H305   1.081       .  S
N306        N307   1.323       .  A
N306        C310   1.345       .  A
N307        C308   1.345       .  A
C308        C309   1.380       .  A
C308        H311   1.082       .  S
C309        C310   1.380       .  A
C309        C499   1.466       .  S
C310        H312   1.082       .  S
N313        N314   1.322       .  A
N313        C317   1.345       .  A
N313       Cu321   2.071       .  S
N314        C315   1.344       .  A
N314       Cu320   2.073   1_565  S
C315        C316   1.384       .  A
C315        H318   1.082       .  S
C316        C317   1.384       .  A
C316        C399   1.476       .  S
C317        H319   1.082       .  S
Cu320       N323   2.073       .  S
Cu321       N331   2.071       .  S
Cu322       N324   2.073       .  S
Cu322       N330   2.073       .  S
N323        N324   1.322       .  A
N323        C327   1.344       .  A
N324        C325   1.346       .  A
C325        C326   1.382       .  A
C325        H328   1.082       .  S
C326        C327   1.382       .  A
C326        C419   1.472       .  S
C327        H329   1.082       .  S
N330        N331   1.323   1_545  A
N330        C334   1.345       .  A
N331        C332   1.344       .  A
C332        C333   1.381   1_565  A
C332        H335   1.082       .  S
C333        C334   1.382       .  A
C333        C516   1.471       .  S
C334        H336   1.082       .  S
N337        N338   1.322       .  A
N337        C341   1.347       .  A
N337       Cu345   2.079       .  S
N338        C339   1.343       .  A
N338       Cu344   2.065       .  S
C339        C340   1.381       .  A
C339        H342   1.082       .  S
C340        C341   1.385       .  A
C340        C459   1.474       .  S
C341        H343   1.082       .  S
Cu344       N347   2.065       .  S
Cu345       N355   2.079       .  S
Cu346       N348   2.077       .  S
Cu346       N354   2.077       .  S
N347        N348   1.320       .  A
N347        C351   1.343       .  A
N348        C349   1.345       .  A
C349        C350   1.390       .  A
C349        H352   1.082       .  S
C350        C351   1.387       .  A
C350        C389   1.487       .  S
C351        H353   1.081       .  S
N354        N355   1.321       .  A
N354        C358   1.344       .  A
N355        C356   1.345       .  A
C356        C357   1.391       .  A
C356        H359   1.080       .  S
C357        C358   1.391       .  A
C357        C409   1.495       .  S
C358        H360   1.078       .  S
N361        N362   1.321       .  A
N361        C365   1.345       .  A
N361       Cu369   2.071       .  S
N362        C363   1.343       .  A
N362       Cu368   2.069       .  S
C363        C364   1.385       .  A
C363        H366   1.082       .  S
C364        C365   1.386       .  A
C364        C599   1.480       .  S
C365        H367   1.081       .  S
Cu368       N371   2.069       .  S
Cu369       N379   2.071       .  S
Cu370       N372   2.077       .  S
Cu370       N378   2.077       .  S
N371        N372   1.321       .  A
N371        C375   1.344       .  A
N372        C373   1.345       .  A
C373        C374   1.388       .  A
C373        H376   1.082       .  S
C374        C375   1.387       .  A
C374        C386   1.486       .  S
C375        H377   1.081       .  S
N378        N379   1.322       .  A
N378        C382   1.345       .  A
N379        C380   1.344       .  A
C380        C381   1.386       .  A
C380        H383   1.081       .  S
C381        C382   1.387       .  A
C381        C396   1.482       .  S
C382        H384   1.082       .  S
C385        C386   1.404       .  A
C385        C390   1.398       .  A
C385        H392   1.082       .  S
C386        C387   1.409       .  A
C387        C388   1.399       .  A
C387        F394   1.356       .  S
C388        C389   1.405       .  A
C388        H393   1.082       .  S
C389        C390   1.410       .  A
C390        F391   1.356       .  S
C395        C396   1.405       .  A
C395        C400   1.397       .  A
C395        H402   1.083       .  S
C396        C397   1.409       .  A
C397        C398   1.399       .  A
C397        F404   1.357       .  S
C398        C399   1.403       .  A
C398        H403   1.083       .  S
C399        C400   1.405       .  A
C400        F401   1.357       .  S
C405        C406   1.399       .  A
C405        C410   1.399       .  A
C405        H412   1.083       .  S
C406        C407   1.401       .  A
C407        C408   1.399       .  A
C407        F414   1.358       .  S
C408        C409   1.411       .  A
C408        H413   1.080       .  S
C409        C410   1.414       .  A
C410        F411   1.355       .  S
C415        C416   1.404       .  A
C415        C420   1.397       .  A
C415        H422   1.083       .  S
C416        C417   1.406       .  A
C417        C418   1.400       .  A
C417        F424   1.357       .  S
C418        C419   1.403       .  A
C418        H423   1.083       .  S
C419        C420   1.404       .  A
C420        F421   1.357       .  S
C425        C426   1.407       .  A
C425        C430   1.397       .  A
C425        H432   1.082       .  S
C426        C427   1.413       .  A
C427        C428   1.400       .  A
C427        F434   1.356       .  S
C428        C429   1.402       .  A
C428        H433   1.084       .  S
C429        C430   1.404       .  A
C430        F431   1.357       .  S
C435        C436   1.405       .  A
C435        C440   1.399       .  A
C435        H442   1.082       .  S
C436        C437   1.410       .  A
C437        C438   1.398       .  A
C437        F444   1.356       .  S
C438        C439   1.406       .  A
C438        H443   1.082       .  S
C439        C440   1.412       .  A
C440        F441   1.355       .  S
C445        C446   1.406       .  A
C445        C450   1.399       .  A
C445        H452   1.083       .  S
C446        C447   1.410       .  A
C447        C448   1.397       .  A
C447        F454   1.357       .  S
C448        C449   1.399       .  A
C448        H453   1.084       .  S
C449        C450   1.402       .  A
C450        F451   1.357       .  S
C455        C456   1.402       .  A
C455        C460   1.399       .  A
C455        H462   1.084       .  S
C456        C457   1.402       .  A
C457        C458   1.398       .  A
C457        F464   1.357       .  S
C458        C459   1.405       .  A
C458        H463   1.084       .  S
C459        C460   1.405       .  A
C460        F461   1.357       .  S
C465        C466   1.405       .  A
C465        C470   1.397   1_545  A
C465        H472   1.083   1_554  S
C466        C467   1.408       .  A
C467        C468   1.398   1_545  A
C467        F474   1.357       .  S
C468        C469   1.404       .  A
C468        H473   1.083       .  S
C469        C470   1.407       .  A
C470        F471   1.357   1_554  S
C475        C476   1.400       .  A
C475        C480   1.398       .  A
C475        H482   1.084       .  S
C476        C477   1.401       .  A
C477        C478   1.398       .  A
C477        F484   1.357       .  S
C478        C479   1.406       .  A
C478        H483   1.083       .  S
C479        C480   1.408       .  A
C480        F481   1.357       .  S
C485        C486   1.405       .  A
C485        C490   1.399       .  A
C485        H492   1.083       .  S
C486        C487   1.408       .  A
C487        C488   1.398       .  A
C487        F494   1.356       .  S
C488        C489   1.405       .  A
C488        H493   1.083       .  S
C489        C490   1.408       .  A
C490        F491   1.357       .  S
C495        C496   1.402   1_554  A
C495        C500   1.398       .  A
C495        H502   1.083       .  S
C496        C497   1.404       .  A
C497        C498   1.398       .  A
C497        F504   1.358       .  S
C498        C499   1.401   1_556  A
C498        H503   1.083       .  S
C499        C500   1.403       .  A
C500        F501   1.357       .  S
C505        C506   1.403       .  A
C505        C510   1.399       .  A
C505        H512   1.083       .  S
C506        C507   1.405       .  A
C507        C508   1.397       .  A
C507        F514   1.357       .  S
C508        C509   1.407       .  A
C508        H513   1.082       .  S
C509        C510   1.411       .  A
C510        F511   1.356       .  S
C515        C516   1.402   1_665  A
C515        C520   1.397       .  A
C515        H522   1.083       .  S
C516        C517   1.404       .  A
C517        C518   1.398       .  A
C517        F524   1.357       .  S
C518        C519   1.403   1_455  A
C518        H523   1.083       .  S
C519        C520   1.406   1_545  A
C520        F521   1.357       .  S
C525        C526   1.407       .  A
C525        C530   1.399       .  A
C525        H532   1.083       .  S
C526        C527   1.409       .  A
C527        C528   1.397       .  A
C527        F534   1.356       .  S
C528        C529   1.403       .  A
C528        H533   1.083       .  S
C529        C530   1.406       .  A
C530        F531   1.357       .  S
C535        C536   1.406       .  A
C535        C540   1.400       .  A
C535        H542   1.083       .  S
C536        C537   1.409       .  A
C537        C538   1.396       .  A
C537        F544   1.356       .  S
C538        C539   1.403       .  A
C538        H543   1.083       .  S
C539        C540   1.407       .  A
C540        F541   1.357       .  S
C545        C546   1.399       .  A
C545        C550   1.397       .  A
C545        H552   1.083       .  S
C546        C547   1.401       .  A
C547        C548   1.399       .  A
C547        F554   1.357       .  S
C548        C549   1.407       .  A
C548        H553   1.083       .  S
C549        C550   1.410       .  A
C550        F551   1.356       .  S
C555        C556   1.404       .  A
C555        C560   1.400       .  A
C555        H562   1.083       .  S
C556        C557   1.407       .  A
C557        C558   1.396       .  A
C557        F564   1.357       .  S
C558        C559   1.404       .  A
C558        H563   1.083       .  S
C559        C560   1.409       .  A
C560        F561   1.357       .  S
C565        C566   1.406       .  A
C565        C570   1.398       .  A
C565        H572   1.081       .  S
C566        C567   1.409       .  A
C567        C568   1.398       .  A
C567        F574   1.356       .  S
C568        C569   1.406       .  A
C568        H573   1.082       .  S
C569        C570   1.409       .  A
C570        F571   1.356       .  S
C575        C576   1.407       .  A
C575        C580   1.397       .  A
C575        H582   1.082       .  S
C576        C577   1.410       .  A
C577        C578   1.399       .  A
C577        F584   1.356       .  S
C578        C579   1.401       .  A
C578        H583   1.084       .  S
C579        C580   1.403       .  A
C580        F581   1.358       .  S
C585        C586   1.405       .  A
C585        C590   1.399       .  A
C585        H592   1.083       .  S
C586        C587   1.405       .  A
C587        C588   1.398       .  A
C587        F594   1.357       .  S
C588        C589   1.402       .  A
C588        H593   1.084       .  S
C589        C590   1.403       .  A
C590        F591   1.357       .  S
C595        C596   1.409       .  A
C595        C600   1.398       .  A
C595        H602   1.079       .  S
C596        C597   1.413       .  A
C597        C598   1.397       .  A
C597        F604   1.354       .  S
C598        C599   1.402       .  A
C598        H603   1.082       .  S
C599        C600   1.405       .  A
C600        F601   1.357       .  S
C605        C606   1.406       .  A
C605        C610   1.398       .  A
C605        H612   1.083       .  S
C606        C607   1.408       .  A
C607        C608   1.399       .  A
C607        F614   1.357       .  S
C608        C609   1.401       .  A
C608        H613   1.084       .  S
C609        C610   1.401       .  A
C610        F611   1.357       .  S
C615        C616   1.403       .  A
C615        C620   1.398       .  A
C615        H622   1.083       .  S
C616        C617   1.406       .  A
C617        C618   1.398       .  A
C617        F624   1.357       .  S
C618        C619   1.403       .  A
C618        H623   1.083       .  S
C619        C620   1.407       .  A
C620        F621   1.357       .  S
