geometry optimzed in LAMMPS
_audit_creation_date              2020-11-30 
_audit_creation_method            'lammps2cif' 
_symmetry_space_group_name_H-M    'P1' 
_symmetry_Int_Tables_number       1 
_symmetry_cell_setting            triclinic 
loop_ 
_symmetry_equiv_pos_as_xyz 
  x,y,z 
_cell_length_a                    51.85366335 
_cell_length_b                    76.18382652372047 
_cell_length_c                    35.83982118431273 
_cell_angle_alpha                 90.28973141979019 
_cell_angle_beta                  89.14863839320545 
_cell_angle_gamma                 92.15731811704434 
loop_ 
_atom_site_label 
_atom_site_type_symbol 
_atom_site_fract_x 
_atom_site_fract_y 
_atom_site_fract_z 
_atom_site_charge 
N1          N  0.71232265  0.22191378  0.31291058    -0.26900
N2          N  0.72428646  0.23724294  0.31920304    -0.34800
C3          C  0.73868616  0.24174866  0.28905111     0.01400
C4          C  0.73592878  0.22848244  0.26280891     0.07500
C5          C  0.71915355  0.21607121  0.27880276    -0.05600
H6          H  0.75056512  0.25368197  0.28664923     0.08100
H7          H  0.71194606  0.20393175  0.26629285     0.09300
Cu8        Cu  0.72182311  0.25075400  0.36932176     0.44200
Cu9        Cu  0.68641712  0.21032166  0.35053330     0.42000
Cu10       Cu  0.68010111  0.23141727  0.44147152     0.43900
N11         N  0.72027403  0.26013397  0.42360390    -0.34300
N12         N  0.70528413  0.25307088  0.45013928    -0.28500
C13         C  0.70994966  0.26170699  0.48236589    -0.04600
C14         C  0.72878782  0.27477127  0.47572662     0.07600
C15         C  0.73484764  0.27337850  0.43817988     0.01400
H16         H  0.70065668  0.25848480  0.50880967     0.09000
H17         H  0.74917741  0.28116117  0.42268653     0.08100
N18         N  0.65805714  0.20930806  0.42479273    -0.35700
N19         N  0.66058367  0.20177562  0.39165328    -0.27900
C20         C  0.64429291  0.18768014  0.38962407    -0.03100
C21         C  0.63087538  0.18616526  0.42307529     0.05500
C22         C  0.63999478  0.20009920  0.44477188     0.03600
H23         H  0.64262911  0.17899336  0.36571718     0.08700
H24         H  0.63429881  0.20309979  0.47317453     0.07500
N25         N  0.79915391  0.25586550  0.05089563    -0.26900
N26         N  0.78433412  0.26314646  0.07644214    -0.34800
C27         C  0.77128642  0.27609429  0.06097650     0.01400
C28         C  0.77811191  0.27709000  0.02366015     0.07500
C29         C  0.79595821  0.26411923  0.01817323    -0.05600
H30         H  0.75669225  0.28344866  0.07534579     0.08100
H31         H  0.80462330  0.26022324  0.99193619     0.09300
Cu32       Cu  0.77820303  0.25257681  0.12853385     0.44200
Cu33       Cu  0.81853902  0.23290123  0.06197708     0.42000
Cu34       Cu  0.78131116  0.20524502  0.12841024     0.43900
N35         N  0.76549808  0.23703566  0.17221604    -0.34300
N36         N  0.76453439  0.21966756  0.17143733    -0.28500
C37         C  0.75355129  0.21377581  0.20355297    -0.04600
C38         C  0.74770498  0.22819801  0.22536753     0.07600
C39         C  0.75558776  0.24267429  0.20470099     0.01400
H40         H  0.75076849  0.20007544  0.21091849     0.09000
H41         H  0.75384480  0.25633090  0.21236230     0.08100
N42         N  0.81102202  0.19639399  0.09419336    -0.35700
N43         N  0.82709030  0.20711377  0.07563384    -0.27900
C44         C  0.84796101  0.19822143  0.06530733    -0.03100
C45         C  0.84460750  0.18070441  0.07614019     0.05500
C46         C  0.82049540  0.18018526  0.09393370     0.03600
H47         H  0.86470758  0.20434525  0.05176742     0.08700
H48         H  0.81038392  0.16907365  0.10636441     0.07500
N49         N  0.43883243  0.94929396  0.54563873    -0.03100
C50         C  0.41388108  0.94286683  0.54941716    -0.00500
C51         C  0.39712375  0.95653686  0.54993039    -0.23400
C52         C  0.41182026  0.97176781  0.54762383    -0.23600
C53         C  0.43728091  0.96715709  0.54408427    -0.00600
H54         H  0.37626313  0.95552448  0.55148915     0.13200
H55         H  0.40457515  0.98489274  0.54636203     0.13200
N56         N  0.48959456  0.09637862  0.47000583    -0.03100
C57         C  0.48270742  0.07948287  0.47969561    -0.00500
C58         C  0.45652039  0.07634914  0.47450497    -0.23400
C59         C  0.44665966  0.09161034  0.46239208    -0.23600
C60         C  0.46710945  0.10362147  0.45940776    -0.00600
H61         H  0.44549732  0.06435633  0.48083350     0.13200
H62         H  0.42658796  0.09383261  0.45685393     0.13200
N63         N  0.13220659  0.76258880  0.89732826    -0.26900
N64         N  0.14609239  0.75528539  0.87064099    -0.34800
C65         C  0.15926266  0.74216681  0.88526613     0.01400
C66         C  0.15328260  0.74111283  0.92293180     0.07500
C67         C  0.13599265  0.75420222  0.92961229    -0.05600
H68         H  0.17292545  0.73438723  0.86981204     0.08100
H69         H  0.12774611  0.75793763  0.95630669     0.09300
Cu70       Cu  0.14875441  0.76481844  0.81668471     0.44200
Cu71       Cu  0.11140050  0.78494288  0.88931102     0.42000
Cu72       Cu  0.12465169  0.80837143  0.80265349     0.43900
N73         N  0.15425571  0.77897275  0.76789944    -0.34300
N74         N  0.14717350  0.79533594  0.76368263    -0.28500
C75         C  0.15631539  0.80137819  0.73061812    -0.04600
C76         C  0.16926388  0.78803169  0.71308395     0.07600
C77         C  0.16748087  0.77400788  0.73732809     0.01400
H78         H  0.15356801  0.81442924  0.72004958     0.09000
H79         H  0.17610443  0.76140370  0.73375711     0.08100
N80         N  0.10009069  0.81717212  0.84460181    -0.35700
N81         N  0.09509117  0.80849756  0.87592615    -0.27900
C82         C  0.07936859  0.81791952  0.89771171    -0.03100
C83         C  0.07418645  0.83324037  0.87922004     0.05500
C84         C  0.08760648  0.83234853  0.84564107     0.03600
H85         H  0.07298531  0.81420821  0.92554266     0.08700
H86         H  0.08897535  0.84228802  0.82421676     0.07500
N87         N  0.22839998  0.76814738  0.49328452    -0.26900
N88         N  0.21341057  0.76030115  0.51887247    -0.34800
C89         C  0.19954338  0.74712598  0.50303988     0.01400
C90         C  0.20590904  0.74643116  0.46558383     0.07500
C91         C  0.22440192  0.75991581  0.46024156    -0.05600
H92         H  0.18514668  0.73899572  0.51769669     0.08100
H93         H  0.23352693  0.76385575  0.43406928     0.09300
Cu94       Cu  0.20907754  0.76849704  0.57353971     0.44200
Cu95       Cu  0.25181659  0.79056031  0.50527882     0.42000
Cu96       Cu  0.23479906  0.81062338  0.59557474     0.43900
N97         N  0.20029087  0.78108404  0.62300550    -0.34300
N98         N  0.20839585  0.79737718  0.63008227    -0.28500
C99         C  0.19810736  0.80256995  0.66282238    -0.04600
C100        C  0.18315410  0.78871012  0.67714602     0.07600
C101        C  0.18505335  0.77526592  0.65134614     0.01400
H102        H  0.20193503  0.81523569  0.67579093     0.09000
H103        H  0.17574799  0.76233013  0.65276954     0.08100
N104        N  0.26456732  0.81975650  0.56083975    -0.35700
N105        N  0.27119574  0.81271957  0.52836568    -0.27900
C106        C  0.29196757  0.82190672  0.51453239    -0.03100
C107        C  0.29854751  0.83518112  0.53966873     0.05500
C108        C  0.28079485  0.83340976  0.56850483     0.03600
H109        H  0.30162285  0.81909194  0.48833977     0.08700
H110        H  0.27984297  0.84141409  0.59348821     0.07500
N111        N  0.98598450  0.95690668  0.97277524    -0.03100
C112        C  0.00856210  0.94932951  0.96248118    -0.00500
C113        C  0.02911646  0.96122120  0.96594539    -0.23400
C114        C  0.01918844  0.97669210  0.97758686    -0.23600
C115        C  0.99284373  0.97380232  0.98250562    -0.00600
H116        H  0.04929831  0.95885396  0.96069200     0.13200
H117        H  0.03025098  0.98864080  0.98396772     0.13200
N118        N  0.00111702  0.10680984  0.07296815    -0.03100
C119        C  0.00694848  0.08949286  0.07022330    -0.00500
C120        C  0.03247849  0.08736152  0.07927386    -0.23400
C121        C  0.04305747  0.10368824  0.08679513    -0.23600
C122        C  0.02360893  0.11541496  0.08320354    -0.00600
H123        H  0.04269700  0.07522890  0.07846882     0.13200
H124        H  0.06302268  0.10675438  0.09340799     0.13200
N125        N  0.21459807  0.25006757  0.20539574    -0.26900
N126        N  0.23683137  0.25467192  0.18898159    -0.34800
C127        C  0.25577546  0.25427910  0.21414189     0.01400
C128        C  0.24486599  0.24945054  0.24810318     0.07500
C129        C  0.21876225  0.24690924  0.24165764    -0.05600
H130        H  0.27579011  0.25794038  0.20844423     0.08100
H131        H  0.20390218  0.24303662  0.26177030     0.09300
Cu132      Cu  0.24013406  0.26350114  0.13463912     0.44200
Cu133      Cu  0.17967563  0.24784334  0.17769135     0.42000
Cu134      Cu  0.18047051  0.26304318  0.08304067     0.43900
N135        N  0.23636500  0.27595953  0.08401101    -0.34300
N136        N  0.21458416  0.27580760  0.06525490    -0.28500
C137        C  0.21810144  0.28576822  0.03462827    -0.04600
C138        C  0.24317858  0.29265960  0.03434137     0.07600
C139        C  0.25423038  0.28616924  0.06603054     0.01400
H140        H  0.20326789  0.28817431  0.01459071     0.09000
H141        H  0.27368636  0.28886914  0.07567722     0.08100
N142        N  0.14932989  0.24893811  0.10675506    -0.35700
N143        N  0.14895644  0.24352340  0.14174308    -0.27900
C144        C  0.12830322  0.23255726  0.14715835    -0.03100
C145        C  0.11495139  0.23100230  0.11405880     0.05500
C146        C  0.12891867  0.24153843  0.08901654     0.03600
H147        H  0.12485280  0.22479781  0.17200512     0.08700
H148        H  0.12599431  0.24227424  0.05925476     0.07500
N149        N  0.28781537  0.24527975  0.32663324    -0.26900
N150        N  0.26576051  0.24805205  0.34421219    -0.34800
C151        C  0.24710127  0.24978851  0.31904222     0.01400
C152        C  0.25802242  0.24818886  0.28388914     0.07500
C153        C  0.28388110  0.24541393  0.28961410    -0.05600
H154        H  0.22722361  0.25241787  0.32585377     0.08100
H155        H  0.29859365  0.24331322  0.26855568     0.09300
Cu156      Cu  0.26265316  0.25076700  0.40130667     0.44200
Cu157      Cu  0.32133051  0.24009621  0.35470598     0.42000
Cu158      Cu  0.31996852  0.24672883  0.45588188     0.43900
N159        N  0.26542942  0.25859601  0.45623229    -0.34300
N160        N  0.28659270  0.25788665  0.47618407    -0.28500
C161        C  0.28262561  0.26604328  0.50910352    -0.04600
C162        C  0.25778200  0.27214098  0.50953260     0.07600
C163        C  0.24746397  0.26710905  0.47571382     0.01400
H164        H  0.29697928  0.26789899  0.53044150     0.09000
H165        H  0.22875701  0.27019634  0.46512337     0.08100
N166        N  0.34798687  0.23300081  0.42725042    -0.35700
N167        N  0.34850771  0.23066613  0.39062925    -0.27900
C168        C  0.36670614  0.21916696  0.38176824    -0.03100
C169        C  0.37818214  0.21403801  0.41428741     0.05500
C170        C  0.36590338  0.22307823  0.44255375     0.03600
H171        H  0.36991917  0.21387257  0.35406960     0.08700
H172        H  0.36845013  0.22151528  0.47227251     0.07500
N173        N  0.73591380  0.85674562  0.81911903    -0.26900
N174        N  0.71301523  0.85095339  0.83152087    -0.34800
C175        C  0.69786416  0.84711449  0.80233487     0.01400
C176        C  0.71205762  0.85030469  0.77006706     0.07500
C177        C  0.73610144  0.85637594  0.78157628    -0.05600
H178        H  0.67818694  0.84182899  0.80448593     0.08100
H179        H  0.75242866  0.86046596  0.76398411     0.09300
Cu180      Cu  0.70422279  0.84633972  0.88705061     0.44200
Cu181      Cu  0.76539339  0.86513392  0.85413892     0.42000
Cu182      Cu  0.75492176  0.85571761  0.95265197     0.43900
N183        N  0.70248704  0.83821278  0.94192641    -0.34300
N184        N  0.72109579  0.84154980  0.96604335    -0.28500
C185        C  0.71495370  0.83341294  0.99836089    -0.04600
C186        C  0.69145843  0.82443576  0.99416701     0.07600
C187        C  0.68410472  0.82777763  0.95808268     0.01400
H188        H  0.72712962  0.83352475  0.02259450     0.09000
H189        H  0.66705964  0.82258230  0.94414891     0.08100
N190        N  0.78700761  0.86965942  0.93147449    -0.35700
N191        N  0.79072453  0.87316728  0.89562769    -0.27900
C192        C  0.81267327  0.88297720  0.89137921    -0.03100
C193        C  0.82327958  0.88563968  0.92615521     0.05500
C194        C  0.80657118  0.87707889  0.95096210     0.03600
H195        H  0.82008060  0.88808187  0.86504061     0.08700
H196        H  0.80818065  0.87663336  0.98100024     0.07500
N197        N  0.67796810  0.84740764  0.68270863    -0.26900
N198        N  0.70098688  0.84247066  0.67129226    -0.34800
C199        C  0.71691035  0.84278228  0.70064802     0.01400
C200        C  0.70300518  0.84788188  0.73182947     0.07500
C201        C  0.67844168  0.85059532  0.71953367    -0.05600
H202        H  0.73703295  0.83941411  0.69942164     0.08100
H203        H  0.66229673  0.85526413  0.73588469     0.09300
Cu204      Cu  0.70927237  0.83538558  0.61642635     0.44200
Cu205      Cu  0.64771312  0.85230023  0.64805435     0.42000
Cu206      Cu  0.66073113  0.84913318  0.55115579     0.43900
N207        N  0.70941774  0.82897108  0.55996070    -0.34300
N208        N  0.69198078  0.83446067  0.53657742    -0.28500
C209        C  0.69610559  0.82735566  0.50283041    -0.04600
C210        C  0.71698021  0.81672185  0.50493727     0.07600
C211        C  0.72506672  0.81804445  0.54153515     0.01400
H212        H  0.68385993  0.82908382  0.47908846     0.09000
H213        H  0.74042786  0.81104566  0.55421037     0.08100
N214        N  0.62856426  0.86103825  0.57238765    -0.35700
N215        N  0.62348289  0.86188997  0.60854272    -0.27900
C216        C  0.60210222  0.87102009  0.61417539    -0.03100
C217        C  0.59332722  0.87608678  0.57980116     0.05500
C218        C  0.61047725  0.86952205  0.55386443     0.03600
H219        H  0.59403844  0.87422231  0.64128959     0.08700
H220        H  0.61027538  0.87124326  0.52391837     0.07500
N221        N  0.51687790  0.46677053  0.92577982    -0.03100
C222        C  0.54184695  0.46153996  0.92387864    -0.00500
C223        C  0.55877573  0.47594982  0.92492759    -0.23400
C224        C  0.54416949  0.49050872  0.92653025    -0.23600
C225        C  0.51856650  0.48471938  0.92781135    -0.00600
H226        H  0.57964386  0.47586283  0.92444101     0.13200
H227        H  0.55147916  0.50399076  0.92797692     0.13200
N228        N  0.45916673  0.61180339  0.98688305    -0.03100
C229        C  0.46888431  0.59646120  0.97370632    -0.00500
C230        C  0.49535469  0.59658662  0.97835320    -0.23400
C231        C  0.50254477  0.61240914  0.99343181    -0.23600
C232        C  0.48026914  0.62142277  0.99905905    -0.00600
H233        H  0.50825247  0.58630191  0.97049063     0.13200
H234        H  0.52204488  0.61691036  0.99980345     0.13200
N235        N  0.76625781  0.30712524  0.53038055    -0.26900
N236        N  0.75083513  0.30006075  0.55640886    -0.34800
C237        C  0.73504611  0.28778379  0.54088026     0.01400
C238        C  0.74067272  0.28697967  0.50316475     0.07500
C239        C  0.76054792  0.29943880  0.49738439    -0.05600
H240        H  0.72092629  0.27973458  0.55620712     0.08100
H241        H  0.77048368  0.30243781  0.47129108     0.09300
Cu242      Cu  0.75302492  0.30599727  0.61252816     0.44200
Cu243      Cu  0.79517905  0.32626401  0.54211631     0.42000
Cu244      Cu  0.80965035  0.33017387  0.64131670     0.43900
N245        N  0.76196917  0.31037606  0.66775665    -0.34300
N246        N  0.78384825  0.31812472  0.67854115    -0.28500
C247        C  0.78409477  0.31876445  0.71605268    -0.04600
C248        C  0.76103462  0.31132006  0.72921847     0.07600
C249        C  0.74741145  0.30622546  0.69796216     0.01400
H250        H  0.79908950  0.32524349  0.73234962     0.09000
H251        H  0.72817060  0.30023924  0.69717708     0.08100
N252        N  0.82808138  0.34514621  0.60012999    -0.35700
N253        N  0.82278309  0.34413359  0.56414579    -0.27900
C254        C  0.83787240  0.35616200  0.54578922    -0.03100
C255        C  0.85328867  0.36507337  0.57153528     0.05500
C256        C  0.84650074  0.35774460  0.60559922     0.03600
H257        H  0.83783486  0.35816382  0.51593328     0.08700
H258        H  0.85438862  0.36132335  0.63249189     0.07500
N259        N  0.73962083  0.30538655  0.96600088    -0.26900
N260        N  0.75636999  0.29958359  0.94103473    -0.34800
C261        C  0.77275256  0.28895781  0.95776025     0.01400
C262        C  0.76624529  0.28801477  0.99517660     0.07500
C263        C  0.74516953  0.29861026  0.99950774    -0.05600
H264        H  0.78798008  0.28214519  0.94346580     0.08100
H265        H  0.73424189  0.30083990  0.02489697     0.09300
Cu266      Cu  0.75588959  0.30518253  0.88474550     0.44200
Cu267      Cu  0.70892531  0.32137817  0.95257067     0.42000
Cu268      Cu  0.69789712  0.32363341  0.85306249     0.43900
N269        N  0.74889512  0.30966239  0.82912116    -0.34300
N270        N  0.72663714  0.31526488  0.81736789    -0.28500
C271        C  0.72735703  0.31619977  0.77994915    -0.04600
C272        C  0.75139004  0.31122009  0.76777041     0.07600
C273        C  0.76467532  0.30724890  0.79955775     0.01400
H274        H  0.71199965  0.32091519  0.76305553     0.09000
H275        H  0.78421428  0.30286096  0.80110701     0.08100
N276        N  0.67550744  0.33610151  0.89256108    -0.35700
N277        N  0.67961896  0.33586981  0.92889755    -0.27900
C278        C  0.66307984  0.34675907  0.94581872    -0.03100
C279        C  0.64792749  0.35408184  0.91872448     0.05500
C280        C  0.65643410  0.34701129  0.88541074     0.03600
H281        H  0.66262836  0.34956509  0.97543073     0.08700
H282        H  0.65003589  0.35019765  0.85778299     0.07500
N283        N  0.16555316  0.71582433  0.41125916    -0.26900
N284        N  0.18260975  0.72089954  0.38530908    -0.34800
C285        C  0.19989285  0.73244444  0.40042798     0.01400
C286        C  0.19348258  0.73463682  0.43775500     0.07500
C287        C  0.17168717  0.72385730  0.44357920    -0.05600
H288        H  0.21570164  0.73893768  0.38522373     0.08100
H289        H  0.16059253  0.72232437  0.46925435     0.09300
Cu290      Cu  0.18046021  0.71244488  0.33022461     0.44200
Cu291      Cu  0.13338868  0.69919973  0.40144986     0.42000
Cu292      Cu  0.12019874  0.68948968  0.30498847     0.43900
N293        N  0.17137157  0.70449610  0.27634936    -0.34300
N294        N  0.14877316  0.69731041  0.26678494    -0.28500
C295        C  0.14849812  0.69505829  0.22952619    -0.04600
C296        C  0.17219710  0.70077748  0.21519945     0.07600
C297        C  0.18627708  0.70656304  0.24556370     0.01400
H298        H  0.13245620  0.68921954  0.21412619     0.09000
H299        H  0.20576373  0.71225821  0.24521886     0.08100
N300        N  0.09703400  0.68009633  0.34877755    -0.35700
N301        N  0.10184385  0.68348540  0.38428142    -0.27900
C302        C  0.08383081  0.67493964  0.40560556    -0.03100
C303        C  0.06701269  0.66568591  0.38233867     0.05500
C304        C  0.07598322  0.66928618  0.34654677     0.03600
H305        H  0.08325306  0.67519437  0.43578507     0.08700
H306        H  0.06797508  0.66421967  0.32075815     0.07500
N307        N  0.20525450  0.69805836  0.12554008    -0.26900
N308        N  0.18276376  0.70374826  0.11484808    -0.34800
C309        C  0.16723271  0.70525246  0.14504404     0.01400
C310        C  0.18089488  0.70060278  0.17609933     0.07500
C311        C  0.20491514  0.69620117  0.16279984    -0.05600
H312        H  0.14775790  0.70988210  0.14455113     0.08100
H313        H  0.22083636  0.69163964  0.17892985     0.09300
Cu314      Cu  0.17543048  0.71031669  0.05993757     0.44200
Cu315      Cu  0.23459026  0.69174712  0.08884458     0.42000
Cu316      Cu  0.22392700  0.69807188  0.99063551     0.43900
N317        N  0.17475864  0.71738391  0.00405307    -0.34300
N318        N  0.19207100  0.71265731  0.97880665    -0.28500
C319        C  0.18656350  0.71989444  0.94585654    -0.04600
C320        C  0.16493337  0.72978255  0.95067224     0.07600
C321        C  0.15796591  0.72790873  0.98787237     0.01400
H322        H  0.19810691  0.71861226  0.92062217     0.09000
H323        H  0.14219297  0.73406447  0.00238642     0.08100
N324        N  0.25502592  0.68497039  0.01122347    -0.35700
N325        N  0.25888810  0.68284187  0.04727732    -0.27900
C326        C  0.28017843  0.67362140  0.05182875    -0.03100
C327        C  0.29023402  0.66980808  0.01698186     0.05500
C328        C  0.27391225  0.67721516  0.99180329     0.03600
H329        H  0.28769626  0.66988540  0.07852288     0.08700
H330        H  0.27552449  0.67686912  0.96167200     0.07500
N331        N  0.65177525  0.79261025  0.04718046    -0.26900
N332        N  0.66900455  0.79749489  0.07240239    -0.34800
C333        C  0.68541989  0.80971365  0.05760175     0.01400
C334        C  0.67816695  0.81274483  0.02136610     0.07500
C335        C  0.65673422  0.80171950  0.01562932    -0.05600
H336        H  0.70172713  0.81569871  0.07203897     0.08100
H337        H  0.64594993  0.80009278  0.99017724     0.09300
Cu338      Cu  0.67076246  0.78686383  0.12518259     0.44200
Cu339      Cu  0.62335999  0.77302217  0.05621750     0.42000
Cu340      Cu  0.62740691  0.75047927  0.14528107     0.43900
N341        N  0.67147768  0.77281555  0.17428060    -0.34300
N342        N  0.65632379  0.75882121  0.18098232    -0.28500
C343        C  0.66235094  0.75204322  0.21418530    -0.04600
C344        C  0.68196492  0.76248914  0.22910606     0.07600
C345        C  0.68720901  0.77558511  0.20333698     0.01400
H346        H  0.65267021  0.74070865  0.22692839     0.09000
H347        H  0.70153406  0.78621792  0.20536348     0.08100
N348        N  0.59983503  0.74453565  0.10568391    -0.35700
N349        N  0.59839226  0.75245844  0.07304828    -0.27900
C350        C  0.57948895  0.74442794  0.05317976    -0.03100
C351        C  0.56846932  0.73101598  0.07463665     0.05500
C352        C  0.58186523  0.73140060  0.10757812     0.03600
H353        H  0.57481453  0.74764952  0.02475737     0.08700
H354        H  0.57955760  0.72226705  0.13053052     0.07500
N355        N  0.74371504  0.78291369  0.44529909    -0.26900
N356        N  0.72704642  0.78985252  0.42263900    -0.34800
C357        C  0.71590756  0.80330122  0.43997322     0.01400
C358        C  0.72597246  0.80493460  0.47533327     0.07500
C359        C  0.74365050  0.79183957  0.47783541    -0.05600
H360        H  0.70078797  0.81084763  0.42813212     0.08100
H361        H  0.75475075  0.78853577  0.50196245     0.09300
Cu362      Cu  0.71794629  0.77992839  0.37064088     0.44200
Cu363      Cu  0.76352374  0.76064532  0.43142490     0.42000
Cu364      Cu  0.74355428  0.73879657  0.34407245     0.43900
N365        N  0.70918964  0.76739796  0.32105795    -0.34300
N366        N  0.71757463  0.75178288  0.31176849    -0.28500
C367        C  0.70833538  0.74723258  0.27802571    -0.04600
C368        C  0.69378890  0.76080538  0.26560045     0.07600
C369        C  0.69483276  0.77339598  0.29333664     0.01400
H370        H  0.71288674  0.73537952  0.26297982     0.09000
H371        H  0.68604843  0.78604525  0.29325016     0.08100
N372        N  0.77172626  0.73001220  0.37913970    -0.35700
N373        N  0.77894226  0.73783437  0.41057369    -0.27900
C374        C  0.79725528  0.72844392  0.42645738    -0.03100
C375        C  0.80182964  0.71416381  0.40377174     0.05500
C376        C  0.78536319  0.71552016  0.37412342     0.03600
H377        H  0.80627112  0.73163510  0.45280115     0.08700
H378        H  0.78309209  0.70644506  0.35096261     0.07500
N379        N  0.99909997  0.45088688  0.50993225    -0.03100
C380        C  0.00298385  0.46754193  0.49632057    -0.00500
C381        C  0.02875216  0.47046080  0.48675848    -0.23400
C382        C  0.04136621  0.45568798  0.49594144    -0.23600
C383        C  0.02292707  0.44379957  0.50965680    -0.00600
H384        H  0.03768711  0.48251627  0.47603782     0.13200
H385        H  0.06191814  0.45388107  0.49338921     0.13200
N386        N  0.90649775  0.59194867  0.44170154    -0.03100
C387        C  0.88317719  0.59970499  0.43986820    -0.00500
C388        C  0.86327527  0.58776705  0.44824624    -0.23400
C389        C  0.87420211  0.57206122  0.45454713    -0.23600
C390        C  0.90062724  0.57487652  0.45134044    -0.00600
H391        H  0.84286618  0.59025172  0.44959597     0.13200
H392        H  0.86398259  0.55990925  0.46208458     0.13200
N393        N  0.28522374  0.33788312  0.82888340    -0.26900
N394        N  0.26284999  0.33320191  0.84467880    -0.34800
C395        C  0.24518065  0.33053317  0.81806908     0.01400
C396        C  0.25715932  0.33349402  0.78392923     0.07500
C397        C  0.28254002  0.33806670  0.79166215    -0.05600
H398        H  0.22527378  0.32621708  0.82317809     0.08100
H399        H  0.29783646  0.34156452  0.77177730     0.09300
Cu400      Cu  0.25837664  0.32893396  0.90113052     0.44200
Cu401      Cu  0.31733824  0.34507831  0.85943539     0.42000
Cu402      Cu  0.31284984  0.33989430  0.96020058     0.43900
N403        N  0.26153588  0.32008964  0.95502964    -0.34300
N404        N  0.28167663  0.32339271  0.97651648    -0.28500
C405        C  0.27836242  0.31417324  0.00835291    -0.04600
C406        C  0.25499067  0.30476255  0.00659044     0.07600
C407        C  0.24489428  0.30887408  0.97249018     0.01400
H408        H  0.29199168  0.31423412  0.03091425     0.09000
H409        H  0.22706704  0.30369762  0.96063630     0.08100
N410        N  0.34067833  0.35595938  0.93307978    -0.35700
N411        N  0.34261578  0.35711684  0.89632107    -0.27900
C412        C  0.36144674  0.36895108  0.88719590    -0.03100
C413        C  0.37182086  0.37578009  0.91964480     0.05500
C414        C  0.35829017  0.36721402  0.94830277     0.03600
H415        H  0.36650232  0.37283606  0.85892553     0.08700
H416        H  0.36050804  0.36942407  0.97794931     0.07500
N417        N  0.21651558  0.32941935  0.70285896    -0.26900
N418        N  0.23892906  0.32507637  0.68810169    -0.34800
C419        C  0.25710426  0.32645985  0.71440107     0.01400
C420        C  0.24537673  0.33163275  0.74727160     0.07500
C421        C  0.21970340  0.33335897  0.73906511    -0.05600
H422        H  0.27706804  0.32305439  0.71035440     0.08100
H423        H  0.20436728  0.33712937  0.75807220     0.09300
Cu424      Cu  0.24288975  0.31489114  0.63492628     0.44200
Cu425      Cu  0.18267902  0.33018664  0.67344069     0.42000
Cu426      Cu  0.18398298  0.31264538  0.58094973     0.43900
N427        N  0.23878630  0.30069941  0.58597937    -0.34300
N428        N  0.21722544  0.29971353  0.56671186    -0.28500
C429        C  0.22064585  0.28919994  0.53700579    -0.04600
C430        C  0.24550055  0.28325253  0.53771217     0.07600
C431        C  0.25647899  0.29076168  0.56914194     0.01400
H432        H  0.20616420  0.28624752  0.51634911     0.09000
H433        H  0.27590675  0.28926140  0.57892988     0.08100
N434        N  0.15409141  0.32740013  0.60148031    -0.35700
N435        N  0.15352978  0.33364548  0.63592620    -0.27900
C436        C  0.13374075  0.34443258  0.63971996    -0.03100
C437        C  0.12123584  0.34499717  0.60599934     0.05500
C438        C  0.13461742  0.33405516  0.58236432     0.03600
H439        H  0.13007801  0.35240858  0.66416341     0.08700
H440        H  0.13169006  0.33220586  0.55274687     0.07500
C441        C  0.02964162  0.42611517  0.52330512     0.01700
C442        C  0.04311148  0.41461520  0.49934168     0.04600
C443        C  0.05335889  0.39923271  0.51356782    -0.11500
C444        C  0.05080026  0.39536366  0.55176503     0.23900
C445        C  0.03641011  0.40618513  0.57534420    -0.12100
C446        C  0.02672680  0.42185165  0.56155964     0.05300
C447        C  0.06788903  0.38241954  0.56820446     0.27700
C448        C  0.05968578  0.36472406  0.57264205    -0.12800
C449        C  0.07704491  0.35246384  0.58575782     0.05800
C450        C  0.10248988  0.35795287  0.59466877    -0.08700
C451        C  0.11040576  0.37579084  0.59125778     0.06600
C452        C  0.09313954  0.38797831  0.57800780    -0.13100
Br453      Br  0.03217553  0.40018591  0.62742485    -0.05200
Br454      Br  0.05055114  0.42059645  0.44781156     0.00500
Br455      Br  0.06602127  0.32819042  0.59191455     0.00900
Br456      Br  0.10426774  0.41233276  0.57221975    -0.03500
Br457      Br  0.01506906  0.43888262  0.59707610     0.01000
Br458      Br  0.07299369  0.38405726  0.48151716    -0.02800
Br459      Br  0.02484677  0.35740956  0.56033865    -0.03700
Br460      Br  0.14527835  0.38352525  0.60293804     0.00300
C461        C  0.98482481  0.48229963  0.49662368     0.01700
C462        C  0.96279473  0.48219179  0.47384601     0.04600
C463        C  0.94869047  0.49752906  0.47013630    -0.11500
C464        C  0.95797274  0.51350397  0.48576711     0.23900
C465        C  0.97982703  0.51374734  0.50848767    -0.12100
C466        C  0.99243831  0.49810050  0.51534760     0.05300
C467        C  0.94500400  0.53009974  0.47773290     0.27700
C468        C  0.94852207  0.53828124  0.44272126    -0.12800
C469        C  0.93480888  0.55332886  0.43411236     0.05800
C470        C  0.91847419  0.56081990  0.46120033    -0.08700
C471        C  0.91573219  0.55282839  0.49683096     0.06600
C472        C  0.92871342  0.53745994  0.50479957    -0.13100
Br473      Br  0.99317218  0.53576039  0.52878163    -0.05200
Br474      Br  0.95322974  0.46213836  0.44382320     0.00500
Br475      Br  0.93634695  0.56214698  0.38392916     0.00900
Br476      Br  0.92344060  0.52600346  0.55244156    -0.03500
Br477      Br  0.02030585  0.49859271  0.55071703     0.01000
Br478      Br  0.91684992  0.49689571  0.44279596    -0.02800
Br479      Br  0.97166021  0.52845328  0.40614902    -0.03700
Br480      Br  0.89395984  0.56272254  0.53532100     0.00300
C481        C  0.81889708  0.69959124  0.41086421     0.01700
C482        C  0.81211941  0.68716239  0.43862074     0.04600
C483        C  0.82676458  0.67216815  0.44254836    -0.11500
C484        C  0.84820629  0.66959495  0.41875930     0.23900
C485        C  0.85567043  0.68239020  0.39214574    -0.12100
C486        C  0.84097332  0.69738966  0.38814766     0.05300
C487        C  0.86107746  0.65260618  0.41966509     0.27700
C488        C  0.87945793  0.64948148  0.44701468    -0.12800
C489        C  0.88729255  0.63227591  0.45333140     0.05800
C490        C  0.87818375  0.61827609  0.43038860    -0.08700
C491        C  0.86061167  0.62176454  0.40157276     0.06600
C492        C  0.85210551  0.63885343  0.39642475    -0.13100
Br493      Br  0.88544313  0.67893333  0.36045495    -0.05200
Br494      Br  0.78174710  0.69001176  0.46954735     0.00500
Br495      Br  0.90640247  0.62789855  0.49763403     0.00900
Br496      Br  0.82670448  0.64335194  0.35903524    -0.03500
Br497      Br  0.85091921  0.71488641  0.35144021     0.01000
Br498      Br  0.81668086  0.65461783  0.47920660    -0.02800
Br499      Br  0.89241472  0.66876586  0.47739900    -0.03700
Br500      Br  0.84647515  0.60312776  0.37014573     0.00300
C501        C  0.04466911  0.65395268  0.39311751     0.01700
C502        C  0.02280697  0.66088888  0.41094176     0.04600
C503        C  0.00117965  0.64983227  0.41975371    -0.11500
C504        C  0.00122157  0.63180911  0.41065177     0.23900
C505        C  0.02313684  0.62481919  0.39326106    -0.12100
C506        C  0.04481720  0.63583606  0.38456878     0.05300
C507        C  0.97777791  0.62038546  0.41799130     0.27700
C508        C  0.97415807  0.61188540  0.45252692    -0.12800
C509        C  0.95113892  0.60199319  0.46025300     0.05800
C510        C  0.93161825  0.60024056  0.43299136    -0.08700
C511        C  0.93635705  0.60789203  0.39744809     0.06600
C512        C  0.95895466  0.61823109  0.39038094    -0.13100
Br513      Br  0.02316561  0.60012521  0.38103649    -0.05200
Br514      Br  0.02182358  0.68572057  0.42139443     0.00500
Br515      Br  0.94622533  0.59233525  0.50943852     0.00900
Br516      Br  0.96412722  0.62981523  0.34288587    -0.03500
Br517      Br  0.07496433  0.62594948  0.36176268     0.01000
Br518      Br  0.97110032  0.65935633  0.44355093    -0.02800
Br519      Br  0.00071160  0.61434244  0.48958110    -0.03700
Br520      Br  0.91301613  0.60336206  0.35701626     0.00300
C521        C  0.87354343  0.37897498  0.56448480     0.01700
C522        C  0.86692095  0.39558742  0.55114964     0.04600
C523        C  0.88631846  0.40867278  0.54409221    -0.11500
C524        C  0.91238536  0.40532318  0.55094257     0.23900
C525        C  0.91889686  0.38895157  0.56559900    -0.12100
C526        C  0.89959831  0.37575219  0.57192537     0.05300
C527        C  0.93321844  0.41821657  0.53923620     0.27700
C528        C  0.94672253  0.41542345  0.50555285    -0.12800
C529        C  0.96763554  0.42670076  0.49519733     0.05800
C530        C  0.97498748  0.44124408  0.51789406    -0.08700
C531        C  0.95976598  0.44498043  0.54985030     0.06600
C532        C  0.93963587  0.43308958  0.56126637    -0.13100
Br533      Br  0.95448984  0.38454974  0.57619269    -0.05200
Br534      Br  0.83121327  0.40060112  0.54343307     0.00500
Br535      Br  0.98493879  0.42275401  0.44821629     0.00900
Br536      Br  0.92162478  0.43660369  0.60801416    -0.03500
Br537      Br  0.90917244  0.35288560  0.58867890     0.01000
Br538      Br  0.87735701  0.43107751  0.52412703    -0.02800
Br539      Br  0.93661538  0.39587026  0.47370896    -0.03700
Br540      Br  0.96612437  0.46616543  0.57832327     0.00300
C541        C  0.48129273  0.63934346  0.01574076     0.01700
C542        C  0.47673176  0.65415686  0.99348077     0.04600
C543        C  0.48554635  0.67100628  0.00509025    -0.11500
C544        C  0.49861659  0.67312126  0.03900206     0.23900
C545        C  0.50064899  0.65877784  0.06307426    -0.12100
C546        C  0.49308184  0.64184052  0.05097693     0.05300
C547        C  0.51549806  0.68892370  0.04537322     0.27700
C548        C  0.54155772  0.68858954  0.03357225    -0.12800
C549        C  0.55872996  0.70262444  0.04235920     0.05800
C550        C  0.54989224  0.71708649  0.06280164    -0.08700
C551        C  0.52377554  0.71758804  0.07408700     0.06600
C552        C  0.50651498  0.70351661  0.06523203    -0.13100
Br553      Br  0.51671109  0.66224313  0.11099927    -0.05200
Br554      Br  0.46290364  0.65137806  0.94419855     0.00500
Br555      Br  0.59469700  0.70159616  0.02810065     0.00900
Br556      Br  0.47085838  0.70387619  0.08104213    -0.03500
Br557      Br  0.50268287  0.62208635  0.08092722     0.01000
Br558      Br  0.48249498  0.69102237  0.97288039    -0.02800
Br559      Br  0.55394024  0.66849691  0.00648855    -0.03700
Br560      Br  0.51194505  0.73736724  0.10244314     0.00300
C561        C  0.31354988  0.65989842  0.00884416     0.01700
C562        C  0.33577794  0.66858580  0.99375325     0.04600
C563        C  0.35853377  0.65938018  0.98825014    -0.11500
C564        C  0.35913620  0.64151098  0.99800601     0.23900
C565        C  0.33677482  0.63271549  0.01229358    -0.12100
C566        C  0.31399385  0.64189993  0.01773688     0.05300
C567        C  0.38374243  0.63230116  0.99531215     0.27700
C568        C  0.39211938  0.62526729  0.96109885    -0.12800
C569        C  0.41690241  0.61836232  0.95780649     0.05800
C570        C  0.43253491  0.61700382  0.98974368    -0.08700
C571        C  0.42232196  0.62219433  0.02477429     0.06600
C572        C  0.39897707  0.63087601  0.02710054    -0.13100
Br573      Br  0.33763219  0.60813867  0.02482328    -0.05200
Br574      Br  0.33558481  0.69335264  0.98279933     0.00500
Br575      Br  0.42939440  0.61248085  0.90881668     0.00900
Br576      Br  0.38820532  0.64139274  0.07368082    -0.03500
Br577      Br  0.28331406  0.62975284  0.03694948     0.01000
Br578      Br  0.38923544  0.67132127  0.96849500    -0.02800
Br579      Br  0.36959821  0.62556920  0.91870879    -0.03700
Br580      Br  0.43830061  0.61566837  0.07037561     0.00300
C581        C  0.62899152  0.36814931  0.92279292     0.01700
C582        C  0.63707033  0.38506553  0.93517899     0.04600
C583        C  0.61964665  0.39881336  0.93569795    -0.11500
C584        C  0.59427251  0.39593729  0.92274333     0.23900
C585        C  0.58605014  0.37903783  0.91073927    -0.12100
C586        C  0.60326901  0.36513469  0.91115284     0.05300
C587        C  0.57702427  0.41106995  0.92005649     0.27700
C588        C  0.56004954  0.41504218  0.94965874    -0.12800
C589        C  0.54735511  0.43111515  0.95020165     0.05800
C590        C  0.55121966  0.44325154  0.92069109    -0.08700
C591        C  0.56794289  0.43891990  0.89056025     0.06600
C592        C  0.58015036  0.42273144  0.88989660    -0.13100
Br593      Br  0.55141783  0.37517538  0.89274717    -0.05200
Br594      Br  0.67254464  0.38991754  0.94857898     0.00500
Br595      Br  0.52821645  0.43734081  0.99434868     0.00900
Br596      Br  0.60238362  0.41674605  0.84838809    -0.03500
Br597      Br  0.59148272  0.34187403  0.89617759     0.01000
Br598      Br  0.63068726  0.42187010  0.95320950    -0.02800
Br599      Br  0.55566837  0.39883048  0.99067340    -0.03700
Br600      Br  0.57611573  0.45553653  0.85101587     0.00300
C601        C  0.49381197  0.45543309  0.92385310     0.01700
C602        C  0.47557590  0.45454067  0.95372800     0.04600
C603        C  0.45444737  0.44239254  0.95252336    -0.11500
C604        C  0.45193397  0.43056586  0.92247308     0.23900
C605        C  0.46948677  0.43165225  0.89229734    -0.12100
C606        C  0.48979174  0.44439167  0.89239808     0.05300
C607        C  0.43103698  0.41675454  0.92286827     0.27700
C608        C  0.43504109  0.40049761  0.93996822    -0.12800
C609        C  0.41537548  0.38724687  0.93999610     0.05800
C610        C  0.39175072  0.39014349  0.92238688    -0.08700
C611        C  0.38771692  0.40656483  0.90563547     0.06600
C612        C  0.40733601  0.41982638  0.90593856    -0.13100
Br613      Br  0.46576242  0.41541668  0.85099308    -0.05200
Br614      Br  0.47992396  0.46863650  0.99799370     0.00500
Br615      Br  0.42142781  0.36487928  0.96262391     0.00900
Br616      Br  0.40200507  0.44224779  0.88297326    -0.03500
Br617      Br  0.51045563  0.44748906  0.84776722     0.01000
Br618      Br  0.42894722  0.44155639  0.99236865    -0.02800
Br619      Br  0.46787886  0.39633727  0.96239107    -0.03700
Br620      Br  0.35502559  0.41129128  0.88337077     0.00300
C621        C  0.45581326  0.58125416  0.95445831     0.01700
C622        C  0.46786598  0.57546781  0.92106527     0.04600
C623        C  0.46928804  0.55743062  0.91357573    -0.11500
C624        C  0.45661461  0.54518576  0.93750267     0.23900
C625        C  0.43929580  0.55119133  0.96495509    -0.12100
C626        C  0.43950824  0.56921678  0.97443092     0.05300
C627        C  0.46683587  0.52722687  0.93996213     0.27700
C628        C  0.46239034  0.51473932  0.91146431    -0.12800
C629        C  0.47840519  0.50020931  0.90780775     0.05800
C630        C  0.49752897  0.49729270  0.93461806    -0.08700
C631        C  0.49976370  0.50887878  0.96561348     0.06600
C632        C  0.48499717  0.52393825  0.96773508    -0.13100
Br633      Br  0.41827664  0.53427613  0.99271875    -0.05200
Br634      Br  0.48684920  0.59203298  0.88921538     0.00500
Br635      Br  0.47641833  0.48631382  0.86303502     0.00900
Br636      Br  0.49177184  0.54101780  0.00691635    -0.03500
Br637      Br  0.42046400  0.57648494  0.01779292     0.01000
Br638      Br  0.49226309  0.54960429  0.87443920    -0.02800
Br639      Br  0.43564285  0.51851606  0.87585034    -0.03700
Br640      Br  0.52419531  0.50483720  0.00480760     0.00300
C641        C  0.09687453  0.21625442  0.10441641     0.01700
C642        C  0.10681889  0.20031955  0.09157319     0.04600
C643        C  0.09016869  0.18562849  0.08569587    -0.11500
C644        C  0.06347924  0.18665947  0.09309886     0.23900
C645        C  0.05333069  0.20277229  0.10449801    -0.12100
C646        C  0.07004461  0.21759176  0.11006373     0.05300
C647        C  0.04720152  0.17015539  0.09274250     0.27700
C648        C  0.03664879  0.16368906  0.05920846    -0.12800
C649        C  0.02739851  0.14606058  0.05663927     0.03800
C650        C  0.02848370  0.13477560  0.08778603    -0.08700
C651        C  0.03884764  0.14154481  0.12161374     0.06600
C652        C  0.04704904  0.15931123  0.12436454    -0.13100
Br653      Br  0.01676569  0.20423062  0.11367051    -0.05200
Br654      Br  0.14352963  0.19829131  0.08382501     0.00500
Br655      Br  0.01794287  0.13681396  0.00849548     0.00900
Br656      Br  0.06021294  0.16865751  0.17087302    -0.03500
Br657      Br  0.05643302  0.23959719  0.12627855     0.01000
Br658      Br  0.10410096  0.16371153  0.06909050    -0.02800
Br659      Br  0.03702668  0.17871764  0.01602239    -0.03700
Br660      Br  0.04520415  0.12636299  0.16333607     0.00300
C661        C  0.96032141  0.94916407  0.96763243     0.01700
C662        C  0.94366271  0.94513450  0.99830720     0.04600
C663        C  0.92071749  0.93496247  0.99287919    -0.11500
C664        C  0.91401897  0.92913115  0.95684249     0.23900
C665        C  0.92953344  0.93420724  0.92600089    -0.12100
C666        C  0.95230647  0.94440035  0.93131588     0.05300
C667        C  0.89048633  0.91784511  0.95097344     0.27700
C668        C  0.89250777  0.89953106  0.94676277    -0.12800
C669        C  0.87047891  0.88896296  0.93844125     0.05800
C670        C  0.84633310  0.89663516  0.93519898    -0.08700
C671        C  0.84421661  0.91487688  0.94017720     0.06600
C672        C  0.86631918  0.92550497  0.94763632    -0.13100
Br673      Br  0.91951269  0.92704802  0.87633621    -0.05200
Br674      Br  0.95193696  0.95299998  0.04791690     0.00500
Br675      Br  0.87338764  0.86405197  0.93051388     0.00900
Br676      Br  0.86372112  0.95061579  0.95240309    -0.03500
Br677      Br  0.97114175  0.95321539  0.88831238     0.01000
Br678      Br  0.89861030  0.92851673  0.03480039    -0.02800
Br679      Br  0.92557566  0.88904797  0.95200601    -0.03700
Br680      Br  0.81098810  0.92526887  0.93666579     0.00300
C681        C  0.99123759  0.07466387  0.05384252     0.01700
C682        C  0.97026715  0.06652424  0.07355340     0.04600
C683        C  0.96038857  0.04981659  0.06224069    -0.11500
C684        C  0.97185736  0.04102179  0.03193829     0.23900
C685        C  0.99105604  0.04984453  0.01014925    -0.12100
C686        C  0.00080257  0.06650017  0.02109867     0.05300
C687        C  0.96819895  0.02165326  0.02720370     0.27700
C688        C  0.98314726  0.01065087  0.04890034    -0.12800
C689        C  0.98721784  0.99335158  0.03717881     0.05800
C690        C  0.97745362  0.98715872  0.00261659    -0.08700
C691        C  0.95945014  0.99733495  0.98390823     0.06600
C692        C  0.95450618  0.01449083  0.99670736    -0.13100
Br693      Br  0.00580444  0.03839597  0.96698505    -0.05200
Br694      Br  0.95699020  0.07700587  0.11842873     0.00500
Br695      Br  0.00918168  0.97887183  0.06638427     0.00900
Br696      Br  0.93110752  0.02899986  0.97059770    -0.03500
Br697      Br  0.02851836  0.07766981  0.99192499     0.01000
Br698      Br  0.93253300  0.03817655  0.08974068    -0.02800
Br699      Br  0.00104637  0.01999451  0.09200490    -0.03700
Br700      Br  0.94352934  0.98892292  0.93890343     0.00300
C701        C  0.06052347  0.84849514  0.89421030     0.01700
C702        C  0.07118124  0.85840173  0.92397211     0.04600
C703        C  0.05953249  0.87386805  0.93597686    -0.11500
C704        C  0.03677379  0.87923365  0.91901690     0.23900
C705        C  0.02528910  0.86878958  0.89080651    -0.12100
C706        C  0.03740166  0.85362403  0.87791135     0.05300
C707        C  0.02656577  0.89672100  0.92823021     0.27700
C708        C  0.01231911  0.89932442  0.96136811    -0.12800
C709        C  0.00596104  0.91642653  0.97246877     0.05800
C710        C  0.01214662  0.93095397  0.94909632    -0.08700
C711        C  0.02588287  0.92808864  0.91516161     0.06600
C712        C  0.03318621  0.91109783  0.90508912    -0.13100
Br713      Br  0.99321958  0.87559550  0.86952236    -0.05200
Br714      Br  0.10267694  0.85146594  0.94688107     0.00500
Br715      Br  0.99307252  0.91985045  0.02241374     0.00900
Br716      Br  0.05375033  0.90755317  0.86041114    -0.03500
Br717      Br  0.02235876  0.83991553  0.83784298     0.01000
Br718      Br  0.07547827  0.88821607  0.97443914    -0.02800
Br719      Br  0.00277200  0.87940526  0.99238785    -0.03700
Br720      Br  0.03649586  0.94737636  0.88276464     0.00300
C721        C  0.46327569  0.12206434  0.44782984     0.01700
C722        C  0.45186820  0.12531505  0.41292433     0.04600
C723        C  0.44302389  0.14205761  0.40476982    -0.11500
C724        C  0.44429233  0.15543148  0.43186212     0.23900
C725        C  0.45661242  0.15261023  0.46585959    -0.12100
C726        C  0.46559455  0.13588836  0.47421553     0.05300
C727        C  0.42789575  0.17079731  0.42780801     0.27700
C728        C  0.43740093  0.18623253  0.41017053    -0.12800
C729        C  0.42099882  0.20033245  0.40513335     0.05800
C730        C  0.39528892  0.19914573  0.41859633    -0.08700
C731        C  0.38575001  0.18357350  0.43587441     0.06600
C732        C  0.40202029  0.16944776  0.44044273    -0.13100
Br733      Br  0.45876008  0.17135382  0.50228347    -0.05200
Br734      Br  0.44463034  0.10648113  0.37781958     0.00500
Br735      Br  0.43371545  0.22126398  0.37985473     0.00900
Br736      Br  0.38874517  0.14798800  0.46344413    -0.03500
Br737      Br  0.47575984  0.13137249  0.52453679     0.01000
Br738      Br  0.42678102  0.14638281  0.35770136    -0.02800
Br739      Br  0.47281363  0.18790035  0.39303261    -0.03700
Br740      Br  0.34995113  0.18106085  0.45130656     0.00300
C741        C  0.46203528  0.93944110  0.54901613     0.01700
C742        C  0.46659933  0.93041471  0.58255858     0.04600
C743        C  0.48843392  0.92023974  0.58596586    -0.11500
C744        C  0.50653731  0.91954617  0.55654126     0.23900
C745        C  0.50298570  0.92916838  0.52377713    -0.12100
C746        C  0.48077723  0.93905153  0.51981373     0.05300
C747        C  0.52943385  0.90873434  0.56047457     0.27700
C748        C  0.55149070  0.91572158  0.57851759    -0.12800
C749        C  0.57249603  0.90503754  0.58475985     0.05800
C750        C  0.57154984  0.88739232  0.57257232    -0.08700
C751        C  0.54968690  0.88053181  0.55377956     0.06600
C752        C  0.52859115  0.89118836  0.54787986    -0.13100
Br753      Br  0.52880060  0.92867333  0.48443918    -0.05200
Br754      Br  0.44501768  0.93368611  0.62592943     0.00500
Br755      Br  0.60274448  0.91473660  0.60930390     0.00900
Br756      Br  0.49818137  0.88173836  0.52337267    -0.03500
Br757      Br  0.47632278  0.95134972  0.47366975     0.01000
Br758      Br  0.49394221  0.90736458  0.63131190    -0.02800
Br759      Br  0.55267101  0.93991528  0.59486992    -0.03700
Br760      Br  0.54808414  0.85630453  0.53773876     0.00300
C761        C  0.31968367  0.84873575  0.53728181     0.01700
C762        C  0.31476098  0.86543568  0.52293928     0.04600
C763        C  0.33346430  0.87923204  0.52583038    -0.11500
C764        C  0.35714379  0.87643721  0.54336246     0.23900
C765        C  0.36241702  0.85959414  0.55666447    -0.12100
C766        C  0.34373890  0.84574278  0.55348202     0.05300
C767        C  0.37572978  0.89155730  0.54898099     0.27700
C768        C  0.39470439  0.89567148  0.52168172    -0.12800
C769        C  0.40835825  0.91204181  0.52255334     0.05800
C770        C  0.40417359  0.92410398  0.55206987    -0.08700
C771        C  0.38620030  0.91922371  0.58091634     0.06600
C772        C  0.37210629  0.90308009  0.57919285    -0.13100
Br773      Br  0.39483681  0.85578063  0.58039944    -0.05200
Br774      Br  0.28199328  0.86951643  0.50037178     0.00500
Br775      Br  0.42895105  0.91863146  0.47959843     0.00900
Br776      Br  0.34633990  0.89709734  0.61699055    -0.03500
Br777      Br  0.35070175  0.82276347  0.57226472     0.01000
Br778      Br  0.32635748  0.90221786  0.50694529    -0.02800
Br779      Br  0.40044564  0.87921034  0.48152851    -0.03700
Br780      Br  0.37888205  0.93498930  0.62195194     0.00300
C781        C  0.49767133  0.06607706  0.49917689     0.01700
C782        C  0.51267632  0.05442572  0.47805121     0.04600
C783        C  0.51300501  0.03650712  0.48794296    -0.11500
C784        C  0.49801971  0.03026566  0.51854265     0.23900
C785        C  0.48719166  0.04242199  0.54342628    -0.12100
C786        C  0.48738029  0.06031924  0.53406692     0.05300
C787        C  0.48781505  0.01171248  0.51935078     0.27700
C788        C  0.46746601  0.00676774  0.49536699    -0.12800
C789        C  0.45329861  0.99092857  0.50112714     0.05800
C790        C  0.45780178  0.98048987  0.53284797    -0.08700
C791        C  0.47909375  0.98501674  0.55571104     0.06600
C792        C  0.49481444  0.00012892  0.54765998    -0.13100
Br793      Br  0.46811010  0.03426564  0.58714480    -0.05200
Br794      Br  0.52961989  0.06218815  0.43282527     0.00500
Br795      Br  0.42687636  0.98398586  0.46571469     0.00900
Br796      Br  0.52491909  0.00585422  0.57690054    -0.03500
Br797      Br  0.46810386  0.07616159  0.56522019     0.01000
Br798      Br  0.53068571  0.01993936  0.45685549    -0.02800
Br799      Br  0.45699921  0.02253030  0.45669636    -0.03700
Br800      Br  0.48504624  0.97239926  0.60085179     0.00300
C801        C  0.86388228  0.16644166  0.07182869     0.01700
C802        C  0.88213918  0.16717967  0.04183011     0.04600
C803        C  0.90408258  0.15686797  0.04242371    -0.11500
C804        C  0.90555285  0.14315717  0.06835952     0.23900
C805        C  0.88516152  0.14021301  0.09418972    -0.12100
C806        C  0.86569966  0.15258307  0.09822305     0.05300
C807        C  0.92912488  0.13256446  0.07000828     0.27700
C808        C  0.93599659  0.12140202  0.04025311    -0.12800
C809        C  0.96013352  0.11341642  0.03996279     0.05800
C810        C  0.97584062  0.11438586  0.07202928    -0.08700
C811        C  0.96665607  0.12342416  0.10376030     0.06600
C812        C  0.94498985  0.13380144  0.10152410    -0.13100
Br813      Br  0.88447473  0.11930632  0.12473991    -0.05200
Br814      Br  0.87646375  0.18059021  0.99728832     0.00500
Br815      Br  0.97146809  0.10252810  0.99442488     0.00900
Br816      Br  0.93787650  0.15019144  0.14137929    -0.03500
Br817      Br  0.84431339  0.15071789  0.14266191     0.01000
Br818      Br  0.93284972  0.16237430  0.00903032    -0.02800
Br819      Br  0.91213191  0.11692492  0.00013619    -0.03700
Br820      Br  0.98113171  0.11972800  0.15196189     0.00300
C821        C  0.51503748  0.10473601  0.46520006     0.01700
C822        C  0.52957426  0.11081825  0.49609622     0.04600
C823        C  0.54948841  0.12378166  0.49111852    -0.11500
C824        C  0.55586807  0.13002518  0.45513626     0.23900
C825        C  0.54352056  0.12249494  0.42398339    -0.12100
C826        C  0.52346488  0.10977606  0.42898851     0.05300
C827        C  0.57541459  0.14457282  0.44970096     0.27700
C828        C  0.56751983  0.16204221  0.44756349    -0.12800
C829        C  0.58573479  0.17573893  0.43954851     0.05800
C830        C  0.61191986  0.17199604  0.43365356    -0.08700
C831        C  0.61982474  0.15452011  0.43628763     0.06600
C832        C  0.60160655  0.14085580  0.44436397    -0.13100
Br833      Br  0.55344611  0.13024715  0.37442148    -0.05200
Br834      Br  0.52276590  0.10171218  0.54520725     0.00500
Br835      Br  0.57451655  0.19945165  0.43436435     0.00900
Br836      Br  0.61228708  0.11692421  0.44736076    -0.03500
Br837      Br  0.50822807  0.09877952  0.38585529     0.01000
Br838      Br  0.56728006  0.13376512  0.53359134    -0.02800
Br839      Br  0.53153424  0.16702301  0.45454102    -0.03700
Br840      Br  0.65569319  0.14925150  0.42924340     0.00300
loop_ 
_geom_bond_atom_site_label_1 
_geom_bond_atom_site_label_2 
_geom_bond_distance 
_geom_bond_site_symmetry_2 
_ccdc_geom_bond_type 
N1            N2   1.322       .  A
N1            C5   1.346       .  A
N1           Cu9   2.067       .  S
N2            C3   1.343       .  A
N2           Cu8   2.070       .  S
C3            C4   1.382       .  A
C3            H6   1.082       .  S
C4            C5   1.381       .  A
C4           C38   1.466       .  S
C5            H7   1.082       .  S
Cu8          N11   2.071       .  S
Cu9          N19   2.068       .  S
Cu10         N12   2.090       .  S
Cu10         N18   2.090       .  S
N11          N12   1.323       .  A
N11          C15   1.346       .  A
N12          C13   1.347       .  A
C13          C14   1.387       .  A
C13          H16   1.082       .  S
C14          C15   1.382       .  A
C14         C238   1.476       .  S
C15          H17   1.082       .  S
N18          N19   1.323       .  A
N18          C22   1.348       .  A
N19          C20   1.343       .  A
C20          C21   1.380       .  A
C20          H23   1.082       .  S
C21          C22   1.386       .  A
C21         C830   1.479       .  S
C22          H24   1.081       .  S
N25          N26   1.320       .  A
N25          C29   1.349       .  A
N25         Cu33   2.093       .  S
N26          C27   1.343       .  A
N26         Cu32   2.053       .  S
C27          C28   1.380       .  A
C27          H30   1.081       .  S
C28          C29   1.390       .  A
C28         C262   1.476   1_554  S
C29          H31   1.081   1_554  S
Cu32         N35   2.053       .  S
Cu33         N43   2.092       .  S
Cu34         N36   2.087       .  S
Cu34         N42   2.085       .  S
N35          N36   1.322       .  A
N35          C39   1.341       .  A
N36          C37   1.348       .  A
C37          C38   1.386       .  A
C37          H40   1.082       .  S
C38          C39   1.377       .  A
C39          H41   1.081       .  S
N42          N43   1.320       .  A
N42          C46   1.346       .  A
N43          C44   1.345       .  A
C44          C45   1.396       .  A
C44          H47   1.080       .  S
C45          C46   1.394       .  A
C45         C801   1.510       .  S
C46          H48   1.074       .  S
N49          C53   1.368       .  A
N49          C50   1.371       .  A
N49         C741   1.449       .  S
C50          C51   1.381       .  A
C50         C770   1.500       .  S
C51          C52   1.366       .  A
C51          H54   1.082       .  S
C52          C53   1.383       .  A
C52          H55   1.083       .  S
C53         C790   1.495       .  S
N56          C60   1.368       .  A
N56          C57   1.368       .  A
N56         C821   1.451       .  S
C57          C58   1.385       .  A
C57         C781   1.488       .  S
C58          C59   1.363       .  A
C58          H61   1.083       .  S
C59          C60   1.378       .  A
C59          H62   1.082       .  S
C60         C721   1.488       .  S
N63          N64   1.322       .  A
N63          C67   1.345       .  A
N63         Cu71   2.073       .  S
N64          C65   1.344       .  A
N64         Cu70   2.070       .  S
C65          C66   1.383       .  A
C65          H68   1.085       .  S
C66          C67   1.383       .  A
C66         C320   1.471       .  S
C67          H69   1.083       .  S
Cu70         N73   2.069       .  S
Cu71         N81   2.074       .  S
Cu72         N74   2.080       .  S
Cu72         N80   2.081       .  S
N73          N74   1.323       .  A
N73          C77   1.344       .  A
N74          C75   1.347       .  A
C75          C76   1.383       .  A
C75          H78   1.081       .  S
C76          C77   1.380       .  A
C76         C100   1.467       .  S
C77          H79   1.081       .  S
N80          N81   1.323       .  A
N80          C84   1.346       .  A
N81          C82   1.345       .  A
C82          C83   1.382       .  A
C82          H85   1.082       .  S
C83          C84   1.384       .  A
C83         C701   1.478       .  S
C84          H86   1.081       .  S
N87          N88   1.324       .  A
N87          C91   1.352       .  A
N87         Cu95   2.104       .  S
N88          C89   1.341       .  A
N88         Cu94   2.065       .  S
C89          C90   1.379       .  A
C89          H92   1.083       .  S
C90          C91   1.391       .  A
C90         C286   1.478       .  S
C91          H93   1.083       .  S
Cu94         N97   2.064       .  S
Cu95        N105   2.104       .  S
Cu96         N98   2.069       .  S
Cu96        N104   2.071       .  S
N97          N98   1.320       .  A
N97         C101   1.344       .  A
N98          C99   1.346       .  A
C99         C100   1.383       .  A
C99         H102   1.082       .  S
C100        C101   1.382       .  A
C101        H103   1.082       .  S
N104        N105   1.325       .  A
N104        C108   1.343       .  A
N105        C106   1.352       .  A
C106        C107   1.387       .  A
C106        H109   1.082       .  S
C107        C108   1.377       .  A
C107        C761   1.479       .  S
C108        H110   1.082       .  S
N111        C115   1.367       .  A
N111        C112   1.370   1_655  A
N111        C661   1.449       .  S
C112        C113   1.379       .  A
C112        C710   1.495       .  S
C113        C114   1.365       .  A
C113        H116   1.082       .  S
C114        C115   1.384   1_455  A
C114        H117   1.083       .  S
C115        C690   1.493   1_556  S
N118        C122   1.370       .  A
N118        C119   1.367       .  A
N118        C810   1.453   1_455  S
C119        C120   1.383       .  A
C119        C681   1.491   1_455  S
C120        C121   1.368       .  A
C120        H123   1.083       .  S
C121        C122   1.380       .  A
C121        H124   1.082       .  S
C122        C650   1.496       .  S
N125        N126   1.323       .  A
N125        C129   1.345       .  A
N125       Cu133   2.079       .  S
N126        C127   1.345       .  A
N126       Cu132   2.066       .  S
C127        C128   1.380       .  A
C127        H130   1.081       .  S
C128        C129   1.383       .  A
C128        C152   1.467       .  S
C129        H131   1.081       .  S
Cu132       N135   2.067       .  S
Cu133       N143   2.079       .  S
Cu134       N136   2.079       .  S
Cu134       N142   2.079       .  S
N135        N136   1.323       .  A
N135        C139   1.346       .  A
N136        C137   1.344       .  A
C137        C138   1.384       .  A
C137        H140   1.081       .  S
C138        C139   1.382       .  A
C138        C406   1.471       .  S
C139        H141   1.083       .  S
N142        N143   1.322       .  A
N142        C146   1.347       .  A
N143        C144   1.346       .  A
C144        C145   1.385       .  A
C144        H147   1.080       .  S
C145        C146   1.385       .  A
C145        C641   1.479       .  S
C146        H148   1.082       .  S
N149        N150   1.321       .  A
N149        C153   1.345       .  A
N149       Cu157   2.073       .  S
N150        C151   1.343       .  A
N150       Cu156   2.060       .  S
C151        C152   1.380       .  A
C151        H154   1.082       .  S
C152        C153   1.384       .  A
C153        H155   1.081       .  S
Cu156       N159   2.060       .  S
Cu157       N167   2.073       .  S
Cu158       N160   2.077       .  S
Cu158       N166   2.078       .  S
N159        N160   1.322       .  A
N159        C163   1.341       .  A
N160        C161   1.347       .  A
C161        C162   1.386       .  A
C161        H164   1.080       .  S
C162        C163   1.379       .  A
C162        C430   1.468       .  S
C163        H165   1.081       .  S
N166        N167   1.324       .  A
N166        C170   1.344       .  A
N167        C168   1.345       .  A
C168        C169   1.381       .  A
C168        H171   1.083       .  S
C169        C170   1.383       .  A
C169        C730   1.476       .  S
C170        H172   1.083       .  S
N173        N174   1.322       .  A
N173        C177   1.346       .  A
N173       Cu181   2.073       .  S
N174        C175   1.342       .  A
N174       Cu180   2.064       .  S
C175        C176   1.379       .  A
C175        H178   1.085       .  S
C176        C177   1.381       .  A
C176        C200   1.464       .  S
C177        H179   1.085       .  S
Cu180       N183   2.065       .  S
Cu181       N191   2.073       .  S
Cu182       N184   2.076       .  S
Cu182       N190   2.076       .  S
N183        N184   1.322       .  A
N183        C187   1.344       .  A
N184        C185   1.345       .  A
C185        C186   1.384       .  A
C185        H188   1.081   1_556  S
C186        C187   1.381       .  A
C186        C334   1.470   1_556  S
C187        H189   1.083       .  S
N190        N191   1.323       .  A
N190        C194   1.345       .  A
N191        C192   1.345       .  A
C192        C193   1.381       .  A
C192        H195   1.082       .  S
C193        C194   1.381       .  A
C193        C670   1.473       .  S
C194        H196   1.082       .  S
N197        N198   1.323       .  A
N197        C201   1.341       .  A
N197       Cu205   2.061       .  S
N198        C199   1.347       .  A
N198       Cu204   2.079       .  S
C199        C200   1.383       .  A
C199        H202   1.084       .  S
C200        C201   1.377       .  A
C201        H203   1.085       .  S
Cu204       N207   2.079       .  S
Cu205       N215   2.062       .  S
Cu206       N208   2.062       .  S
Cu206       N214   2.062       .  S
N207        N208   1.323       .  A
N207        C211   1.348       .  A
N208        C209   1.340       .  A
C209        C210   1.379       .  A
C209        H212   1.081       .  S
C210        C211   1.385       .  A
C210        C358   1.469       .  S
C211        H213   1.082       .  S
N214        N215   1.320       .  A
N214        C218   1.344       .  A
N215        C216   1.343       .  A
C216        C217   1.381       .  A
C216        H219   1.083       .  S
C217        C218   1.382       .  A
C217        C750   1.473       .  S
C218        H220   1.082       .  S
N221        C225   1.369       .  A
N221        C222   1.370       .  A
N221        C601   1.451       .  S
C222        C223   1.380       .  A
C222        C590   1.496       .  S
C223        C224   1.367       .  A
C223        H226   1.082       .  S
C224        C225   1.383       .  A
C224        H227   1.083       .  S
C225        C630   1.495       .  S
N228        C232   1.369       .  A
N228        C229   1.369       .  A
N228        C570   1.453       .  S
C229        C230   1.385       .  A
C229        C621   1.491       .  S
C230        C231   1.360       .  A
C230        H233   1.083       .  S
C231        C232   1.378       .  A
C231        H234   1.083       .  S
C232        C541   1.487   1_556  S
N235        N236   1.323       .  A
N235        C239   1.349       .  A
N235       Cu243   2.098       .  S
N236        C237   1.344       .  A
N236       Cu242   2.063       .  S
C237        C238   1.380       .  A
C237        H240   1.082       .  S
C238        C239   1.389       .  A
C239        H241   1.082       .  S
Cu242       N245   2.062       .  S
Cu243       N253   2.098       .  S
Cu244       N246   2.069       .  S
Cu244       N252   2.070       .  S
N245        N246   1.321       .  A
N245        C249   1.343       .  A
N246        C247   1.345       .  A
C247        C248   1.382       .  A
C247        H250   1.082       .  S
C248        C249   1.380       .  A
C248        C272   1.462       .  S
C249        H251   1.082       .  S
N252        N253   1.324       .  A
N252        C256   1.344       .  A
N253        C254   1.350       .  A
C254        C255   1.388       .  A
C254        H257   1.082       .  S
C255        C256   1.380       .  A
C255        C521   1.483       .  S
C256        H258   1.082       .  S
N259        N260   1.324       .  A
N259        C263   1.349       .  A
N259       Cu267   2.103       .  S
N260        C261   1.345       .  A
N260       Cu266   2.065       .  S
C261        C262   1.379       .  A
C261        H264   1.082       .  S
C262        C263   1.389       .  A
C263        H265   1.081   1_556  S
Cu266       N269   2.064       .  S
Cu267       N277   2.103       .  S
Cu268       N270   2.067       .  S
Cu268       N276   2.068       .  S
N269        N270   1.321       .  A
N269        C273   1.345       .  A
N270        C271   1.343       .  A
C271        C272   1.380       .  A
C271        H274   1.081       .  S
C272        C273   1.381       .  A
C273        H275   1.081       .  S
N276        N277   1.323       .  A
N276        C280   1.344       .  A
N277        C278   1.351       .  A
C278        C279   1.390       .  A
C278        H281   1.082       .  S
C279        C280   1.381       .  A
C279        C581   1.486       .  S
C280        H282   1.081       .  S
N283        N284   1.323       .  A
N283        C287   1.344       .  A
N283       Cu291   2.089       .  S
N284        C285   1.349       .  A
N284       Cu290   2.077       .  S
C285        C286   1.384       .  A
C285        H288   1.083       .  S
C286        C287   1.386       .  A
C287        H289   1.082       .  S
Cu290       N293   2.076       .  S
Cu291       N301   2.089       .  S
Cu292       N294   2.075       .  S
Cu292       N300   2.076       .  S
N293        N294   1.324       .  A
N293        C297   1.344       .  A
N294        C295   1.346       .  A
C295        C296   1.381       .  A
C295        H298   1.085       .  S
C296        C297   1.381       .  A
C296        C310   1.466       .  S
C297        H299   1.084       .  S
N300        N301   1.323       .  A
N300        C304   1.346       .  A
N301        C302   1.348       .  A
C302        C303   1.386       .  A
C302        H305   1.082       .  S
C303        C304   1.383       .  A
C303        C501   1.484       .  S
C304        H306   1.082       .  S
N307        N308   1.322       .  A
N307        C311   1.343       .  A
N307       Cu315   2.065       .  S
N308        C309   1.346       .  A
N308       Cu314   2.077       .  S
C309        C310   1.383       .  A
C309        H312   1.083       .  S
C310        C311   1.380       .  A
C311        H313   1.084       .  S
Cu314       N317   2.078       .  S
Cu315       N325   2.065       .  S
Cu316       N318   2.075       .  S
Cu316       N324   2.075   1_556  S
N317        N318   1.323   1_554  A
N317        C321   1.345   1_554  A
N318        C319   1.345       .  A
C319        C320   1.383       .  A
C319        H322   1.083       .  S
C320        C321   1.383       .  A
C321        H323   1.083   1_556  S
N324        N325   1.322       .  A
N324        C328   1.346   1_554  A
N325        C326   1.343       .  A
C326        C327   1.380       .  A
C326        H329   1.082       .  S
C327        C328   1.383   1_554  A
C327        C561   1.474       .  S
C328        H330   1.082       .  S
N331        N332   1.323       .  A
N331        C335   1.346       .  A
N331       Cu339   2.080       .  S
N332        C333   1.343       .  A
N332       Cu338   2.066       .  S
C333        C334   1.380       .  A
C333        H336   1.083       .  S
C334        C335   1.385       .  A
C335        H337   1.081   1_554  S
Cu338       N341   2.066       .  S
Cu339       N349   2.080       .  S
Cu340       N342   2.066       .  S
Cu340       N348   2.066       .  S
N341        N342   1.321       .  A
N341        C345   1.343       .  A
N342        C343   1.345       .  A
C343        C344   1.380       .  A
C343        H346   1.082       .  S
C344        C345   1.380       .  A
C344        C368   1.461       .  S
C345        H347   1.081       .  S
N348        N349   1.323       .  A
N348        C352   1.343       .  A
N349        C350   1.347       .  A
C350        C351   1.383       .  A
C350        H353   1.082       .  S
C351        C352   1.378       .  A
C351        C550   1.471       .  S
C352        H354   1.082       .  S
N355        N356   1.321       .  A
N355        C359   1.347       .  A
N355       Cu363   2.071       .  S
N356        C357   1.340       .  A
N356       Cu362   2.062       .  S
C357        C358   1.381       .  A
C357        H360   1.082       .  S
C358        C359   1.384       .  A
C359        H361   1.082       .  S
Cu362       N365   2.061       .  S
Cu363       N373   2.072       .  S
Cu364       N366   2.072       .  S
Cu364       N372   2.073       .  S
N365        N366   1.321       .  A
N365        C369   1.342       .  A
N366        C367   1.346       .  A
C367        C368   1.382       .  A
C367        H370   1.081       .  S
C368        C369   1.378       .  A
C369        H371   1.081       .  S
N372        N373   1.324       .  A
N372        C376   1.343       .  A
N373        C374   1.345       .  A
C374        C375   1.380       .  A
C374        H377   1.082       .  S
C375        C376   1.380       .  A
C375        C481   1.471       .  S
C376        H378   1.083       .  S
N379        C383   1.367   1_655  A
N379        C380   1.368   1_655  A
N379        C530   1.451       .  S
C380        C381   1.385       .  A
C380        C461   1.493   1_455  S
C381        C382   1.367       .  A
C381        H384   1.083       .  S
C382        C383   1.379       .  A
C382        H385   1.082       .  S
C383        C441   1.491       .  S
N386        C390   1.369       .  A
N386        C387   1.368       .  A
N386        C510   1.456       .  S
C387        C388   1.380       .  A
C387        C490   1.490       .  S
C388        C389   1.364       .  A
C388        H391   1.082       .  S
C389        C390   1.382       .  A
C389        H392   1.083       .  S
C390        C470   1.489       .  S
N393        N394   1.321       .  A
N393        C397   1.343       .  A
N393       Cu401   2.062       .  S
N394        C395   1.342       .  A
N394       Cu400   2.059       .  S
C395        C396   1.380       .  A
C395        H398   1.085       .  S
C396        C397   1.380       .  A
C396        C420   1.461       .  S
C397        H399   1.085       .  S
Cu400       N403   2.060       .  S
Cu401       N411   2.063       .  S
Cu402       N404   2.088       .  S
Cu402       N410   2.089       .  S
N403        N404   1.323       .  A
N403        C407   1.342       .  A
N404        C405   1.348   1_556  A
C405        C406   1.387       .  A
C405        H408   1.082       .  S
C406        C407   1.379   1_554  A
C407        H409   1.083       .  S
N410        N411   1.323       .  A
N410        C414   1.348       .  A
N411        C412   1.342       .  A
C412        C413   1.380       .  A
C412        H415   1.083       .  S
C413        C414   1.387       .  A
C413        C610   1.480       .  S
C414        H416   1.082       .  S
N417        N418   1.322       .  A
N417        C421   1.342       .  A
N417       Cu425   2.063       .  S
N418        C419   1.344       .  A
N418       Cu424   2.064       .  S
C419        C420   1.380       .  A
C419        H422   1.084       .  S
C420        C421   1.379       .  A
C421        H423   1.085       .  S
Cu424       N427   2.065       .  S
Cu425       N435   2.063       .  S
Cu426       N428   2.073       .  S
Cu426       N434   2.073       .  S
N427        N428   1.322       .  A
N427        C431   1.345       .  A
N428        C429   1.343       .  A
C429        C430   1.383       .  A
C429        H432   1.079       .  S
C430        C431   1.381       .  A
C431        H433   1.082       .  S
N434        N435   1.321       .  A
N434        C438   1.345       .  A
N435        C436   1.344       .  A
C436        C437   1.382       .  A
C436        H439   1.082       .  S
C437        C438   1.383       .  A
C437        C450   1.474       .  S
C438        H440   1.082       .  S
C441        C442   1.419       .  A
C441        C446   1.415       .  A
C442        C443   1.406       .  A
C442       Br454   1.934       .  S
C443        C444   1.405       .  A
C443       Br458   1.932       .  S
C444        C445   1.404       .  A
C444        C447   1.481       .  S
C445        C446   1.407       .  A
C445       Br453   1.931       .  S
C446       Br457   1.921       .  S
C447        C448   1.407       .  A
C447        C452   1.410       .  A
C448        C449   1.409       .  A
C448       Br459   1.927       .  S
C449        C450   1.410       .  A
C449       Br455   1.928       .  S
C450        C451   1.410       .  A
C451        C452   1.403       .  A
C451       Br460   1.932       .  S
C452       Br456   1.933       .  S
C461        C462   1.414       .  A
C461        C466   1.421       .  A
C462        C463   1.409       .  A
C462       Br474   1.918       .  S
C463        C464   1.408       .  A
C463       Br478   1.931       .  S
C464        C465   1.405       .  A
C464        C467   1.486       .  S
C465        C466   1.406       .  A
C465       Br473   1.933       .  S
C466       Br477   1.936   1_655  S
C467        C468   1.410       .  A
C467        C472   1.405       .  A
C468        C469   1.409       .  A
C468       Br479   1.931       .  S
C469        C470   1.411       .  A
C469       Br475   1.923       .  S
C470        C471   1.420       .  A
C471        C472   1.405       .  A
C471       Br480   1.937       .  S
C472       Br476   1.933       .  S
C481        C482   1.408       .  A
C481        C486   1.410       .  A
C482        C483   1.404       .  A
C482       Br494   1.931       .  S
C483        C484   1.410       .  A
C483       Br498   1.932       .  S
C484        C485   1.407       .  A
C484        C487   1.479       .  S
C485        C486   1.406       .  A
C485       Br493   1.928       .  S
C486       Br497   1.929       .  S
C487        C488   1.405       .  A
C487        C492   1.405       .  A
C488        C489   1.407       .  A
C488       Br499   1.931       .  S
C489        C490   1.415       .  A
C489       Br495   1.921       .  S
C490        C491   1.420       .  A
C491        C492   1.404       .  A
C491       Br500   1.937       .  S
C492       Br496   1.934       .  S
C501        C502   1.412       .  A
C501        C506   1.413       .  A
C502        C503   1.410       .  A
C502       Br514   1.929       .  S
C503        C504   1.410       .  A
C503       Br518   1.930   1_455  S
C504        C505   1.409       .  A
C504        C507   1.489   1_455  S
C505        C506   1.409       .  A
C505       Br513   1.930       .  S
C506       Br517   1.930       .  S
C507        C508   1.407       .  A
C507        C512   1.405       .  A
C508        C509   1.412       .  A
C508       Br519   1.931   1_655  S
C509        C510   1.419       .  A
C509       Br515   1.923       .  S
C510        C511   1.418       .  A
C511        C512   1.408       .  A
C511       Br520   1.923       .  S
C512       Br516   1.932       .  S
C521        C522   1.411       .  A
C521        C526   1.412       .  A
C522        C523   1.410       .  A
C522       Br534   1.929       .  S
C523        C524   1.410       .  A
C523       Br538   1.930       .  S
C524        C525   1.410       .  A
C524        C527   1.490       .  S
C525        C526   1.408       .  A
C525       Br533   1.932       .  S
C526       Br537   1.930       .  S
C527        C528   1.406       .  A
C527        C532   1.410       .  A
C528        C529   1.405       .  A
C528       Br539   1.933       .  S
C529        C530   1.415       .  A
C529       Br535   1.924       .  S
C530        C531   1.415       .  A
C531        C532   1.413       .  A
C531       Br540   1.926       .  S
C532       Br536   1.928       .  S
C541        C542   1.415   1_554  A
C541        C546   1.420       .  A
C542        C543   1.409   1_556  A
C542       Br554   1.924       .  S
C543        C544   1.406       .  A
C543       Br558   1.930   1_554  S
C544        C545   1.404       .  A
C544        C547   1.480       .  S
C545        C546   1.403       .  A
C545       Br553   1.933       .  S
C546       Br557   1.937       .  S
C547        C548   1.411       .  A
C547        C552   1.407       .  A
C548        C549   1.403       .  A
C548       Br559   1.933       .  S
C549        C550   1.407       .  A
C549       Br555   1.931       .  S
C550        C551   1.409       .  A
C551        C552   1.408       .  A
C551       Br560   1.928       .  S
C552       Br556   1.927       .  S
C561        C562   1.410   1_554  A
C561        C566   1.410       .  A
C562        C563   1.406       .  A
C562       Br574   1.930       .  S
C563        C564   1.409       .  A
C563       Br578   1.931       .  S
C564        C565   1.408   1_556  A
C564        C567   1.481       .  S
C565        C566   1.406       .  A
C565       Br573   1.930       .  S
C566       Br577   1.930       .  S
C567        C568   1.405       .  A
C567        C572   1.403   1_556  A
C568        C569   1.410       .  A
C568       Br579   1.931       .  S
C569        C570   1.419       .  A
C569       Br575   1.919       .  S
C570        C571   1.416   1_556  A
C571        C572   1.402       .  A
C571       Br580   1.919       .  S
C572       Br576   1.932       .  S
C581        C582   1.412       .  A
C581        C586   1.414       .  A
C582        C583   1.409       .  A
C582       Br594   1.930       .  S
C583        C584   1.411       .  A
C583       Br598   1.932       .  S
C584        C585   1.408       .  A
C584        C587   1.490       .  S
C585        C586   1.411       .  A
C585       Br593   1.929       .  S
C586       Br597   1.929       .  S
C587        C588   1.407       .  A
C587        C592   1.406       .  A
C588        C589   1.412       .  A
C588       Br599   1.930       .  S
C589        C590   1.415       .  A
C589       Br595   1.922       .  S
C590        C591   1.420       .  A
C591        C592   1.407       .  A
C591       Br600   1.937       .  S
C592       Br596   1.932       .  S
C601        C602   1.418       .  A
C601        C606   1.416       .  A
C602        C603   1.408       .  A
C602       Br614   1.923       .  S
C603        C604   1.405       .  A
C603       Br618   1.931       .  S
C604        C605   1.404       .  A
C604        C607   1.482       .  S
C605        C606   1.405       .  A
C605       Br613   1.931       .  S
C606       Br617   1.923       .  S
C607        C608   1.408       .  A
C607        C612   1.407       .  A
C608        C609   1.408       .  A
C608       Br619   1.931       .  S
C609        C610   1.412       .  A
C609       Br615   1.929       .  S
C610        C611   1.414       .  A
C611        C612   1.407       .  A
C611       Br620   1.931       .  S
C612       Br616   1.931       .  S
C621        C622   1.418       .  A
C621        C626   1.414       .  A
C622        C623   1.403       .  A
C622       Br634   1.937       .  S
C623        C624   1.408       .  A
C623       Br638   1.933       .  S
C624        C625   1.409       .  A
C624        C627   1.489       .  S
C625        C626   1.413       .  A
C625       Br633   1.927       .  S
C626       Br637   1.919   1_556  S
C627        C628   1.408       .  A
C627        C632   1.410       .  A
C628        C629   1.413       .  A
C628       Br639   1.929       .  S
C629        C630   1.415       .  A
C629       Br635   1.920       .  S
C630        C631   1.419       .  A
C631        C632   1.404       .  A
C631       Br640   1.939   1_556  S
C632       Br636   1.937   1_556  S
C641        C642   1.409       .  A
C641        C646   1.410       .  A
C642        C643   1.405       .  A
C642       Br654   1.931       .  S
C643        C644   1.410       .  A
C643       Br658   1.932       .  S
C644        C645   1.410       .  A
C644        C647   1.488       .  S
C645        C646   1.412       .  A
C645       Br653   1.927       .  S
C646       Br657   1.927       .  S
C647        C648   1.407       .  A
C647        C652   1.406       .  A
C648        C649   1.412       .  A
C648       Br659   1.929       .  S
C649        C650   1.415       .  A
C649       Br655   1.924       .  S
C650        C651   1.420       .  A
C651        C652   1.407       .  A
C651       Br660   1.935       .  S
C652       Br656   1.933       .  S
C661        C662   1.416       .  A
C661        C666   1.414       .  A
C662        C663   1.411       .  A
C662       Br674   1.923   1_556  S
C663        C664   1.408       .  A
C663       Br678   1.930   1_556  S
C664        C665   1.405       .  A
C664        C667   1.483       .  S
C665        C666   1.404       .  A
C665       Br673   1.932       .  S
C666       Br677   1.923       .  S
C667        C668   1.410       .  A
C667        C672   1.409       .  A
C668        C669   1.407       .  A
C668       Br679   1.931       .  S
C669        C670   1.408       .  A
C669       Br675   1.929       .  S
C670        C671   1.408       .  A
C671        C672   1.406       .  A
C671       Br680   1.929       .  S
C672       Br676   1.929       .  S
C681        C682   1.413       .  A
C681        C686   1.417   1_655  A
C682        C683   1.414       .  A
C682       Br694   1.922       .  S
C683        C684   1.409       .  A
C683       Br698   1.927       .  S
C684        C685   1.409       .  A
C684        C687   1.490       .  S
C685        C686   1.404   1_655  A
C685       Br693   1.934   1_654  S
C686       Br697   1.938   1_554  S
C687        C688   1.408       .  A
C687        C692   1.409   1_554  A
C688        C689   1.404   1_545  A
C688       Br699   1.933   1_655  S
C689        C690   1.417       .  A
C689       Br695   1.937   1_655  S
C690        C691   1.414   1_554  A
C691        C692   1.414   1_565  A
C691       Br700   1.919       .  S
C692       Br696   1.927       .  S
C701        C702   1.411       .  A
C701        C706   1.411       .  A
C702        C703   1.407       .  A
C702       Br714   1.931       .  S
C703        C704   1.410       .  A
C703       Br718   1.931       .  S
C704        C705   1.409       .  A
C704        C707   1.486       .  S
C705        C706   1.408       .  A
C705       Br713   1.929   1_455  S
C706       Br717   1.928       .  S
C707        C708   1.406       .  A
C707        C712   1.406       .  A
C708        C709   1.410       .  A
C708       Br719   1.931       .  S
C709        C710   1.416       .  A
C709       Br715   1.921   1_456  S
C710        C711   1.420       .  A
C711        C712   1.406       .  A
C711       Br720   1.936       .  S
C712       Br716   1.934       .  S
C721        C722   1.419       .  A
C721        C726   1.415       .  A
C722        C723   1.405       .  A
C722       Br734   1.933       .  S
C723        C724   1.404       .  A
C723       Br738   1.932       .  S
C724        C725   1.405       .  A
C724        C727   1.481       .  S
C725        C726   1.408       .  A
C725       Br733   1.931       .  S
C726       Br737   1.923       .  S
C727        C728   1.407       .  A
C727        C732   1.410       .  A
C728        C729   1.409       .  A
C728       Br739   1.927       .  S
C729        C730   1.411       .  A
C729       Br735   1.928       .  S
C730        C731   1.411       .  A
C731        C732   1.404       .  A
C731       Br740   1.932       .  S
C732       Br736   1.933       .  S
C741        C742   1.415       .  A
C741        C746   1.419       .  A
C742        C743   1.403       .  A
C742       Br754   1.923       .  S
C743        C744   1.404       .  A
C743       Br758   1.933       .  S
C744        C745   1.406       .  A
C744        C747   1.479       .  S
C745        C746   1.409       .  A
C745       Br753   1.931       .  S
C746       Br757   1.926       .  S
C747        C748   1.408       .  A
C747        C752   1.408       .  A
C748        C749   1.405       .  A
C748       Br759   1.930       .  S
C749        C750   1.411       .  A
C749       Br755   1.931       .  S
C750        C751   1.409       .  A
C751        C752   1.406       .  A
C751       Br760   1.930       .  S
C752       Br756   1.930       .  S
C761        C762   1.408       .  A
C761        C766   1.410       .  A
C762        C763   1.408       .  A
C762       Br774   1.929       .  S
C763        C764   1.411       .  A
C763       Br778   1.931       .  S
C764        C765   1.409       .  A
C764        C767   1.489       .  S
C765        C766   1.411       .  A
C765       Br773   1.928       .  S
C766       Br777   1.927       .  S
C767        C768   1.405       .  A
C767        C772   1.405       .  A
C768        C769   1.411       .  A
C768       Br779   1.931       .  S
C769        C770   1.417       .  A
C769       Br775   1.919       .  S
C770        C771   1.423       .  A
C771        C772   1.408       .  A
C771       Br780   1.936       .  S
C772       Br776   1.933       .  S
C781        C782   1.412       .  A
C781        C786   1.417       .  A
C782        C783   1.413       .  A
C782       Br794   1.918       .  S
C783        C784   1.409       .  A
C783       Br798   1.928       .  S
C784        C785   1.409       .  A
C784        C787   1.491       .  S
C785        C786   1.405       .  A
C785       Br793   1.933       .  S
C786       Br797   1.936       .  S
C787        C788   1.410       .  A
C787        C792   1.409       .  A
C788        C789   1.403   1_545  A
C788       Br799   1.935       .  S
C789        C790   1.418       .  A
C789       Br795   1.939       .  S
C790        C791   1.416       .  A
C791        C792   1.414   1_565  A
C791       Br800   1.921       .  S
C792       Br796   1.928       .  S
C801        C802   1.422       .  A
C801        C806   1.428       .  A
C802        C803   1.407       .  A
C802       Br814   1.932   1_554  S
C803        C804   1.407       .  A
C803       Br818   1.933       .  S
C804        C805   1.407       .  A
C804        C807   1.492       .  S
C805        C806   1.412       .  A
C805       Br813   1.936       .  S
C806       Br817   1.930       .  S
C807        C808   1.411       .  A
C807        C812   1.408       .  A
C808        C809   1.412       .  A
C808       Br819   1.932       .  S
C809        C810   1.418       .  A
C809       Br815   1.921   1_554  S
C810        C811   1.412       .  A
C811        C812   1.401       .  A
C811       Br820   1.920       .  S
C812       Br816   1.933       .  S
C821        C822   1.415       .  A
C821        C826   1.414       .  A
C822        C823   1.412       .  A
C822       Br834   1.918       .  S
C823        C824   1.407       .  A
C823       Br838   1.930       .  S
C824        C825   1.405       .  A
C824        C827   1.485       .  S
C825        C826   1.405       .  A
C825       Br833   1.931       .  S
C826       Br837   1.921       .  S
C827        C828   1.410       .  A
C827        C832   1.408       .  A
C828        C829   1.409       .  A
C828       Br839   1.931       .  S
C829        C830   1.411       .  A
C829       Br835   1.929       .  S
C830        C831   1.412       .  A
C831        C832   1.407       .  A
C831       Br840   1.930       .  S
C832       Br836   1.929       .  S
