geometry optimzed in LAMMPS
_audit_creation_date              2020-11-30 
_audit_creation_method            'lammps2cif' 
_symmetry_space_group_name_H-M    'P1' 
_symmetry_Int_Tables_number       1 
_symmetry_cell_setting            triclinic 
loop_ 
_symmetry_equiv_pos_as_xyz 
  x,y,z 
_cell_length_a                    52.80421027 
_cell_length_b                    49.69573034529418 
_cell_length_c                    52.675936175334925 
_cell_angle_alpha                 89.58741371284908 
_cell_angle_beta                  90.16607989073621 
_cell_angle_gamma                 92.77472885686669 
loop_ 
_atom_site_label 
_atom_site_type_symbol 
_atom_site_fract_x 
_atom_site_fract_y 
_atom_site_fract_z 
_atom_site_charge 
N1          N  0.22781164  0.21231138  0.43119998    -0.26500
N2          N  0.21781562  0.20885771  0.45401568    -0.34300
C3          C  0.22126444  0.23203171  0.46704847     0.01900
C4          C  0.23406782  0.25087203  0.45151467     0.07900
C5          C  0.23789436  0.23755730  0.42903467    -0.05200
H6          H  0.21462731  0.23495366  0.48618733     0.08600
H7          H  0.24686963  0.24582933  0.41206872     0.09800
Cu8        Cu  0.19918815  0.17258947  0.46490370     0.44200
Cu9        Cu  0.22558918  0.18326095  0.40334489     0.42000
Cu10       Cu  0.18593081  0.12300846  0.41384801     0.43900
N11         N  0.18029751  0.13504103  0.47012515    -0.33800
N12         N  0.17466774  0.11760420  0.45174615    -0.28100
C13         C  0.16190987  0.09589840  0.46182615    -0.04200
C14         C  0.15966867  0.09999275  0.48761607     0.08000
C15         C  0.17163944  0.12472789  0.49236605     0.01800
H16         H  0.15539574  0.07826454  0.45130683     0.09500
H17         H  0.17388333  0.13451697  0.51056377     0.08500
N18         N  0.20272667  0.13302004  0.37883392    -0.35300
N19         N  0.21807782  0.15460973  0.37578916    -0.27500
C20         C  0.22645878  0.15574276  0.35175876    -0.02700
C21         C  0.21583498  0.13389435  0.33877326     0.05900
C22         C  0.20070514  0.11997389  0.35645970     0.04000
H23         H  0.23869031  0.17189642  0.34411487     0.09100
H24         H  0.18912243  0.10174812  0.35329412     0.07900
N25         N  0.28337303  0.21316423  0.05067091    -0.26500
N26         N  0.29490530  0.20573621  0.02976754    -0.34300
C27         C  0.29433101  0.22568711  0.01248474     0.01900
C28         C  0.28198662  0.24683341  0.02283344     0.07900
C29         C  0.27518348  0.23821841  0.04712636    -0.05200
H30         H  0.30335910  0.22532092  0.99408043     0.08600
H31         H  0.26581367  0.24955376  0.06148731     0.09800
Cu32       Cu  0.31491687  0.17114383  0.02622096     0.44200
Cu33       Cu  0.28142507  0.18959988  0.08367529     0.42000
Cu34       Cu  0.32463167  0.13465899  0.08339369     0.43900
N35         N  0.34258194  0.14322759  0.02967022    -0.33800
N36         N  0.34695572  0.13070815  0.05132273    -0.28100
C37         C  0.36971806  0.11980580  0.05003831    -0.04200
C38         C  0.38008143  0.12539132  0.02633519     0.08000
C39         C  0.36230158  0.14031259  0.01395377     0.01800
H40         H  0.37932751  0.11123547  0.06613418     0.09500
H41         H  0.36518178  0.15153209  0.99643089     0.08500
N42         N  0.30086142  0.14263489  0.11353382    -0.35300
N43         N  0.28484285  0.16230711  0.11369384    -0.27500
C44         C  0.27276279  0.16198871  0.13622087    -0.02700
C45         C  0.28172847  0.14117718  0.15092062     0.05900
C46         C  0.29953870  0.12949196  0.13593117     0.04000
H47         H  0.25915464  0.17642975  0.14174750     0.09100
H48         H  0.31107258  0.11288046  0.14111052     0.07900
N49         N  0.71613467  0.23074896  0.99881918    -0.26500
N50         N  0.71068945  0.22150810  0.97591619    -0.34300
C51         C  0.71280522  0.24187483  0.95904982     0.01900
C52         C  0.71986840  0.26519228  0.97188568     0.07900
C53         C  0.72188527  0.25741817  0.99716687    -0.05200
H54         H  0.70890815  0.23995616  0.93894334     0.08600
H55         H  0.72678615  0.27010207  0.01321154     0.09800
Cu56       Cu  0.69853251  0.18211412  0.96925798     0.44200
Cu57       Cu  0.71435878  0.20580238  0.03065311     0.42000
Cu58       Cu  0.68476070  0.13734759  0.02276303     0.43900
N59         N  0.68097727  0.14432454  0.96579366    -0.33800
N60         N  0.67452274  0.12808467  0.98501378    -0.28100
C61         C  0.66167096  0.10608088  0.97567128    -0.04200
C62         C  0.66047685  0.10896066  0.94949524     0.08000
C63         C  0.67290905  0.13320029  0.94388957     0.01800
H64         H  0.65411819  0.08929452  0.98694910     0.09500
H65         H  0.67546986  0.14236943  0.92532638     0.08500
N66         N  0.70045572  0.15241481  0.05697471    -0.35300
N67         N  0.71156130  0.17676530  0.05925551    -0.27500
C68         C  0.72059912  0.17979117  0.08302406    -0.02700
C69         C  0.71489546  0.15636010  0.09661823     0.05900
C70         C  0.70195454  0.13951399  0.07955356     0.04000
H71         H  0.73026719  0.19797889  0.08995922     0.09100
H72         H  0.69444396  0.11922453  0.08322660     0.07900
N73         N  0.79048894  0.21597613  0.38728911    -0.26500
N74         N  0.80147043  0.20726426  0.40819566    -0.34300
C75         C  0.80160961  0.22676989  0.42575671     0.01900
C76         C  0.79041991  0.24892770  0.41544912     0.07900
C77         C  0.78348094  0.24135601  0.39100961    -0.05200
H78         H  0.81011523  0.22528974  0.44440237     0.08600
H79         H  0.77443392  0.25344437  0.37678781     0.09800
Cu80       Cu  0.81917011  0.17095471  0.41111093     0.44200
Cu81       Cu  0.78725416  0.19371264  0.35400807     0.42000
Cu82       Cu  0.82748041  0.13705970  0.35152403     0.43900
N83         N  0.84415002  0.14036818  0.40664696    -0.33800
N84         N  0.84805329  0.12892007  0.38451560    -0.28100
C85         C  0.86963624  0.11566758  0.38599006    -0.04200
C86         C  0.87978060  0.11861657  0.41020818     0.08000
C87         C  0.86296595  0.13437681  0.42275410     0.01800
H88         H  0.87897805  0.10740593  0.36975026     0.09500
H89         H  0.86630105  0.14422032  0.44079940     0.08500
N90         N  0.80535461  0.14930487  0.32087428    -0.35300
N91         N  0.78994831  0.16946439  0.32215848    -0.27500
C92         C  0.77853462  0.17247608  0.29947140    -0.02700
C93         C  0.78734189  0.15347204  0.28294996     0.05900
C94         C  0.80441050  0.13926123  0.29716083     0.04000
H95         H  0.76567169  0.18815485  0.29503938     0.09100
H96         H  0.81561649  0.12303504  0.29060977     0.07900
N97         N  0.28657893  0.98036683  0.55720763    -0.26500
N98         N  0.27276545  0.98312390  0.53648236    -0.34300
C99         C  0.27496072  0.96119936  0.52186455     0.01900
C100        C  0.29096047  0.94386105  0.53411661     0.07900
C101        C  0.29794988  0.95677802  0.55637353    -0.05200
H102        H  0.26514793  0.95796058  0.50402312     0.08600
H103        H  0.30996970  0.94925610  0.57122975     0.09800
Cu104      Cu  0.25007977  0.01583418  0.53078108     0.44200
Cu105      Cu  0.28796373  0.00780802  0.58659240     0.42000
Cu106      Cu  0.24735175  0.06370072  0.58397110     0.43900
N107        N  0.22489864  0.04681034  0.53273643    -0.33800
N108        N  0.22350650  0.06357138  0.55205038    -0.28100
C109        C  0.20200106  0.07689877  0.54973817    -0.04200
C110        C  0.18933920  0.06855745  0.52785205     0.08000
C111        C  0.20444512  0.04933661  0.51772218     0.01800
H112        H  0.19456402  0.08933582  0.56447024     0.09500
H113        H  0.19920553  0.03561643  0.50251932     0.08500
N114        N  0.27138506  0.05655631  0.61479434    -0.35300
N115        N  0.28608895  0.03578915  0.61534360    -0.27500
C116        C  0.29871439  0.03547657  0.63749605    -0.02700
C117        C  0.29175357  0.05715289  0.65191030     0.05900
C118        C  0.27438219  0.07010861  0.63682739     0.04000
H119        H  0.31176916  0.02023641  0.64262143     0.09100
H120        H  0.26438881  0.08784648  0.64170063     0.07900
N121        N  0.34799094  0.97471417  0.93980151    -0.26500
N122        N  0.35001494  0.98682594  0.96197832    -0.34300
C123        C  0.34120973  0.96988826  0.98024733     0.01900
C124        C  0.33322471  0.94582798  0.96913700     0.07900
C125        C  0.33779415  0.94956854  0.94334838    -0.05200
H126        H  0.34054650  0.97478983  0.00021182     0.08600
H127        H  0.33361086  0.93540982  0.92823531     0.09800
Cu128      Cu  0.36508046  0.02574871  0.96595626     0.44200
Cu129      Cu  0.35806994  0.99491355  0.90638316     0.42000
Cu130      Cu  0.38567889  0.06480559  0.91036800     0.43900
N131        N  0.38517111  0.06244502  0.96781113    -0.33800
N132        N  0.39409815  0.07638862  0.94796153    -0.28100
C133        C  0.40799889  0.09807281  0.95650947    -0.04200
C134        C  0.40724574  0.09755023  0.98283492     0.08000
C135        C  0.39259628  0.07489676  0.98931975     0.01800
H136        H  0.41754275  0.11314803  0.94455639     0.09500
H137        H  0.38812673  0.06761631  0.00826595     0.08500
N138        N  0.37243295  0.04642939  0.87661111    -0.35300
N139        N  0.36359854  0.02103394  0.87568033    -0.27500
C140        C  0.35660165  0.01510991  0.85178543    -0.02700
C141        C  0.36071590  0.03770451  0.83675578     0.05900
C142        C  0.37084431  0.05733710  0.85305558     0.04000
H143        H  0.34839133  0.99578095  0.84587052     0.09100
H144        H  0.37664517  0.07790196  0.84819779     0.07900
N145        N  0.91773758  0.10813085  0.43747893    -0.02600
C146        C  0.94293762  0.11525446  0.43622551    -0.00100
C147        C  0.94788826  0.12988184  0.41407001    -0.22900
C148        C  0.92524050  0.13171555  0.40149173    -0.23100
C149        C  0.90708576  0.11820833  0.41615191    -0.00200
H150        H  0.96602419  0.13774787  0.40709173     0.13600
H151        H  0.92226422  0.14218707  0.38372351     0.13700
N152        N  0.14879448  0.08149037  0.50612411    -0.02600
C153        C  0.12376549  0.07478524  0.50974876    -0.00100
C154        C  0.12109270  0.05728329  0.53038595    -0.22900
C155        C  0.14501740  0.05335013  0.53957955    -0.23100
C156        C  0.16160961  0.06850514  0.52449278    -0.00200
H157        H  0.10379323  0.04866701  0.53861813     0.13600
H158        H  0.14980886  0.04078233  0.55558525     0.13700
N159        N  0.79581857  0.00265049  0.91198551    -0.26500
N160        N  0.78032906  0.01040287  0.92988129    -0.34300
C161        C  0.78053958  0.99262043  0.94926914     0.01900
C162        C  0.79684686  0.97265598  0.94326057     0.07900
C163        C  0.80632859  0.97981919  0.91949617    -0.05200
H164        H  0.76836183  0.99314247  0.96572872     0.08600
H165        H  0.81865811  0.96852336  0.90768709     0.09800
Cu166      Cu  0.75598743  0.04153769  0.92478495     0.44200
Cu167      Cu  0.79884827  0.02055331  0.87638575     0.42000
Cu168      Cu  0.75107454  0.06604716  0.85909463     0.43900
N169        N  0.72717684  0.06497601  0.91168271    -0.33800
N170        N  0.72464156  0.07239008  0.88765439    -0.28100
C171        C  0.70130110  0.08155384  0.88435499    -0.04200
C172        C  0.68870014  0.08027327  0.90738671     0.08000
C173        C  0.70571876  0.06974756  0.92429486     0.01800
H174        H  0.69334697  0.08673485  0.86611041     0.09500
H175        H  0.70170383  0.06301693  0.94351353     0.08500
N176        N  0.77947923  0.05531950  0.83408919    -0.35300
N177        N  0.79692154  0.03840944  0.84077918    -0.27500
C178        C  0.81173959  0.03394989  0.82070546    -0.02700
C179        C  0.80345877  0.04880530  0.80029960     0.05900
C180        C  0.78289820  0.06219789  0.80944147     0.04000
H181        H  0.82702890  0.02021120  0.82075149     0.09100
H182        H  0.77073440  0.07509233  0.79879433     0.07900
N183        N  0.83545033  0.98041469  0.51348577    -0.26500
N184        N  0.84263030  0.98432096  0.48969197    -0.34300
C185        C  0.83470571  0.96259319  0.47602191     0.01900
C186        C  0.82182448  0.94446171  0.49223052     0.07900
C187        C  0.82265975  0.95655496  0.51567200    -0.05200
H188        H  0.83784876  0.96036177  0.45588474     0.08600
H189        H  0.81467314  0.94849545  0.53319360     0.09800
Cu190      Cu  0.86246562  0.01984056  0.47835530     0.44200
Cu191      Cu  0.84322831  0.00716743  0.54235388     0.42000
Cu192      Cu  0.87752528  0.06943252  0.52985559     0.43900
N193        N  0.88269382  0.05680257  0.47340107    -0.33800
N194        N  0.88899312  0.07403075  0.49179237    -0.28100
C195        C  0.90296618  0.09496650  0.48175656    -0.04200
C196        C  0.90512662  0.09074624  0.45595790     0.08000
C197        C  0.89201733  0.06659891  0.45121697     0.01800
H198        H  0.91048425  0.11214616  0.49233681     0.09500
H199        H  0.88968229  0.05671092  0.43307366     0.08500
N200        N  0.86273884  0.05901219  0.56580713    -0.35300
N201        N  0.85052663  0.03557681  0.56992412    -0.27500
C202        C  0.84300931  0.03390090  0.59421339    -0.02700
C203        C  0.85074366  0.05752598  0.60634216     0.05900
C204        C  0.86313359  0.07307847  0.58768062     0.04000
H205        H  0.83217579  0.01683733  0.60212168     0.09100
H206        H  0.87168915  0.09314739  0.58985578     0.07900
N207        N  0.64900592  0.09077276  0.93122723    -0.02600
C208        C  0.62379193  0.08582464  0.92710515    -0.00100
C209        C  0.62019845  0.07225035  0.90429099    -0.22900
C210        C  0.64377094  0.06910638  0.89412305    -0.23100
C211        C  0.66103961  0.08071542  0.91091721    -0.00200
H212        H  0.60250004  0.06611581  0.89518925     0.13600
H213        H  0.64785281  0.05938634  0.87637760     0.13700
N214        N  0.41888766  0.11653530  0.00035995    -0.02600
C215        C  0.44386880  0.12430926  0.00224856    -0.00100
C216        C  0.44779640  0.14003470  0.02375535    -0.22900
C217        C  0.42471286  0.14171028  0.03538681    -0.23100
C218        C  0.40741125  0.12704308  0.02078420    -0.00200
H219        H  0.46552964  0.14856638  0.03110294     0.13600
H220        H  0.42094626  0.15246625  0.05266023     0.13700
N221        N  0.26094011  0.48887833  0.53844379    -0.26500
N222        N  0.27765575  0.49008496  0.51975758    -0.34300
C223        C  0.27543865  0.46690494  0.50654318     0.01900
C224        C  0.25636592  0.45047382  0.51751431     0.07900
C225        C  0.24758763  0.46520809  0.53748838    -0.05200
H226        H  0.28743160  0.46208443  0.49076908     0.08600
H227        H  0.23350870  0.45850865  0.55133206     0.09800
Cu228      Cu  0.30440453  0.52219366  0.51514639     0.44200
Cu229      Cu  0.25983981  0.51629450  0.56784435     0.42000
Cu230      Cu  0.31440795  0.56035291  0.57385538     0.43900
N231        N  0.33134035  0.55420306  0.51896119    -0.33800
N232        N  0.33519957  0.56726900  0.54054535    -0.28100
C233        C  0.35614208  0.58355884  0.53826714    -0.04200
C234        C  0.36599745  0.58101626  0.51410196     0.08000
C235        C  0.34971516  0.56219220  0.50236581     0.01800
H236        H  0.36486907  0.59470511  0.55383266     0.09500
H237        H  0.35264797  0.55279135  0.48421589     0.08500
N238        N  0.28926322  0.55248442  0.60382331    -0.35300
N239        N  0.26810451  0.53754964  0.60078788    -0.27500
C240        C  0.25525132  0.53640230  0.62280446    -0.02700
C241        C  0.26912708  0.55092814  0.64079604     0.05900
C242        C  0.29065166  0.56091001  0.62810938     0.04000
H243        H  0.23754056  0.52496341  0.62576711     0.09100
H244        H  0.30608157  0.57342272  0.63586709     0.07900
N245        N  0.24563362  0.47840838  0.94180808    -0.26500
N246        N  0.23758499  0.48852812  0.96330294    -0.34300
C247        C  0.23887091  0.46977110  0.98174208     0.01900
C248        C  0.24821031  0.44674385  0.97143149     0.07900
C249        C  0.25233546  0.45296604  0.94601698    -0.05200
H250        H  0.23266166  0.47239811  0.00109000     0.08600
H251        H  0.25889546  0.43981246  0.93141472     0.09800
Cu252      Cu  0.22252674  0.52624406  0.96582112     0.44200
Cu253      Cu  0.24548472  0.49917751  0.90745866     0.42000
Cu254      Cu  0.21699745  0.56361155  0.90612869     0.43900
N255        N  0.20131683  0.56010150  0.96162553    -0.33800
N256        N  0.19884571  0.57312742  0.93983226    -0.28100
C257        C  0.17927999  0.58929805  0.94173221    -0.04200
C258        C  0.16893475  0.58653303  0.96580424     0.08000
C259        C  0.18351531  0.56791583  0.97791215     0.01800
H260        H  0.17110098  0.59964039  0.92576712     0.09500
H261        H  0.17908901  0.55781501  0.99573571     0.08500
N262        N  0.23387643  0.54709663  0.87440437    -0.35300
N263        N  0.24417183  0.52337011  0.87521458    -0.27500
C264        C  0.25368514  0.51802450  0.85227266    -0.02700
C265        C  0.24918546  0.53924637  0.83606218     0.05900
C266        C  0.23651429  0.55742041  0.85072146     0.04000
H267        H  0.26335063  0.49996790  0.84773110     0.09100
H268        H  0.22997900  0.57679020  0.84479022     0.07900
N269        N  0.31739358  0.72173015  0.41953861    -0.26500
N270        N  0.33108207  0.71834685  0.44020337    -0.34300
C271        C  0.33055014  0.74068895  0.45450666     0.01900
C272        C  0.31574526  0.75903440  0.44206373     0.07900
C273        C  0.30779904  0.74628173  0.41998184    -0.05200
H274        H  0.34014151  0.74321485  0.47255622     0.08600
H275        H  0.29572017  0.75420470  0.40537994     0.09800
Cu276      Cu  0.34907174  0.68279729  0.44693305     0.44200
Cu277      Cu  0.31237192  0.69211139  0.39231876     0.42000
Cu278      Cu  0.34151928  0.62718759  0.40054570     0.43900
N279        N  0.36515696  0.64570174  0.45073497    -0.33800
N280        N  0.36270662  0.62529899  0.43464235    -0.28100
C281        C  0.37567573  0.60455139  0.44407688    -0.04200
C282        C  0.38664476  0.61274171  0.46687109     0.08000
C283        C  0.37956290  0.63867864  0.47053521     0.01800
H284        H  0.37685450  0.58511581  0.43516669     0.09500
H285        H  0.38432339  0.65147413  0.48654923     0.08500
N286        N  0.31918446  0.63733050  0.36876085    -0.35300
N287        N  0.30875869  0.66092089  0.36652161    -0.27500
C288        C  0.29587714  0.66189811  0.34454244    -0.02700
C289        C  0.29807245  0.63779061  0.33191880     0.05900
C290        C  0.31311195  0.62269544  0.34783635     0.04000
H291        H  0.28611232  0.67932640  0.33811515     0.09100
H292        H  0.31928560  0.60262120  0.34434662     0.07900
N293        N  0.22665533  0.73134692  0.05040446    -0.26500
N294        N  0.21823184  0.72272283  0.02815373    -0.34300
C295        C  0.22579258  0.74054050  0.01005554     0.01900
C296        C  0.23971245  0.76146965  0.02142796     0.07900
C297        C  0.23989804  0.75495320  0.04711528    -0.05200
H298        H  0.22159465  0.73834065  0.99003337     0.08600
H299        H  0.24915322  0.76622545  0.06228769     0.09800
Cu300      Cu  0.19701617  0.68692020  0.02426383     0.44200
Cu301      Cu  0.22004069  0.70917136  0.08349945     0.42000
Cu302      Cu  0.18454685  0.64352329  0.08000357     0.43900
N303        N  0.17422825  0.65190065  0.02381283    -0.33800
N304        N  0.16865803  0.63621559  0.04370072    -0.28100
C305        C  0.15251068  0.61584358  0.03602692    -0.04200
C306        C  0.14826051  0.61915390  0.01022458     0.08000
C307        C  0.16229835  0.64196196  0.00312881     0.01800
H308        H  0.14493018  0.59972402  0.04810903     0.09500
H309        H  0.16368319  0.65079475  0.98432077     0.08500
N310        N  0.20360695  0.65815216  0.11281696    -0.35300
N311        N  0.21512652  0.68241280  0.11378399    -0.27500
C312        C  0.22434556  0.68668887  0.13727392    -0.02700
C313        C  0.21905367  0.66402281  0.15192497     0.05900
C314        C  0.20583102  0.64619039  0.13586010     0.04000
H315        H  0.23451505  0.70500809  0.14321517     0.09100
H316        H  0.19782825  0.62638859  0.14075282     0.07900
N317        N  0.75071619  0.47803357  0.49734460    -0.26500
N318        N  0.74335042  0.48864286  0.47561908    -0.34300
C319        C  0.74607851  0.47063979  0.45697578     0.01900
C320        C  0.75561275  0.44757428  0.46740503     0.07900
C321        C  0.75835141  0.45301448  0.49309885    -0.05200
H322        H  0.74100577  0.47389823  0.43730814     0.08600
H323        H  0.76510592  0.43980179  0.50776464     0.09800
Cu324      Cu  0.72817218  0.52635776  0.47284218     0.44200
Cu325      Cu  0.74947674  0.49794150  0.53188005     0.42000
Cu326      Cu  0.72311882  0.56379649  0.53172915     0.43900
N327        N  0.70732154  0.56053519  0.47628140    -0.33800
N328        N  0.70490829  0.57378934  0.49774220    -0.28100
C329        C  0.68523637  0.58989451  0.49532199    -0.04200
C330        C  0.67472939  0.58688663  0.47123296     0.08000
C331        C  0.68940507  0.56805291  0.45982526     0.01800
H332        H  0.67673473  0.59986412  0.51113977     0.09500
H333        H  0.68470311  0.55732306  0.44250365     0.08500
N334        N  0.73878496  0.54626188  0.56413052    -0.35300
N335        N  0.74764464  0.52180880  0.56404864    -0.27500
C336        C  0.75450570  0.51513800  0.58779678    -0.02700
C337        C  0.75002678  0.53637477  0.60372385     0.05900
C338        C  0.74005662  0.55585984  0.58805494     0.04000
H339        H  0.76182968  0.49594547  0.59318885     0.09100
H340        H  0.73325133  0.57508861  0.59375687     0.07900
N341        N  0.76645499  0.50277885  0.90295175    -0.26500
N342        N  0.77697932  0.51051929  0.92466724    -0.34300
C343        C  0.77248945  0.49113586  0.94224170     0.01900
C344        C  0.75862975  0.47005993  0.93109869     0.07900
C345        C  0.75501551  0.47818800  0.90614283    -0.05200
H346        H  0.78007740  0.49165187  0.96134940     0.08600
H347        H  0.74576832  0.46673140  0.89108176     0.09800
Cu348      Cu  0.80101045  0.54447421  0.92831395     0.44200
Cu349      Cu  0.77104448  0.52456729  0.86930229     0.42000
Cu350      Cu  0.82295899  0.57518426  0.86924273     0.43900
N351        N  0.83242614  0.57094721  0.92594037    -0.33800
N352        N  0.84156385  0.58068700  0.90421219    -0.28100
C353        C  0.86514698  0.59133851  0.90839353    -0.04200
C354        C  0.87086140  0.58871564  0.93399833     0.08000
C355        C  0.84967342  0.57560744  0.94444773     0.01800
H356        H  0.87803244  0.59834926  0.89356239     0.09500
H357        H  0.84821922  0.56702023  0.96335565     0.08500
N358        N  0.80039705  0.56597626  0.83731446    -0.35300
N359        N  0.78134619  0.54768035  0.83757886    -0.27500
C360        C  0.77107084  0.54588213  0.81418563    -0.02700
C361        C  0.78429226  0.56388184  0.79823509     0.05900
C362        C  0.80268340  0.57628926  0.81362983     0.04000
H363        H  0.75548788  0.53199755  0.80918914     0.09100
H364        H  0.81705213  0.59133823  0.80786230     0.07900
N365        N  0.40139295  0.59762155  0.48441148    -0.02600
C366        C  0.42703776  0.60062992  0.48710286    -0.00100
C367        C  0.43427791  0.59204852  0.51100846    -0.22900
C368        C  0.41252521  0.58408613  0.52366736    -0.23100
C369        C  0.39267092  0.58780164  0.50710723    -0.00200
H370        H  0.45338044  0.59118959  0.51836659     0.13600
H371        H  0.41132720  0.57615646  0.54284091     0.13700
N372        N  0.63583258  0.60617837  0.45084267    -0.02600
C373        C  0.61071437  0.59852551  0.45102495    -0.00100
C374        C  0.60672356  0.57594742  0.46638855    -0.22900
C375        C  0.62987443  0.56955187  0.47589692    -0.23100
C376        C  0.64736561  0.58834546  0.46617001    -0.00200
H377        H  0.58871524  0.56590444  0.47120786     0.13600
H378        H  0.63358979  0.55299047  0.48861331     0.13700
N379        N  0.74376816  0.72312552  0.39442020    -0.26500
N380        N  0.73127726  0.72126851  0.41610265    -0.34300
C381        C  0.73870505  0.74244904  0.43072713     0.01900
C382        C  0.75675520  0.75813568  0.41736731     0.07900
C383        C  0.75942598  0.74516995  0.39457710    -0.05200
H384        H  0.73119466  0.74632154  0.44935582     0.08600
H385        H  0.77133619  0.75177167  0.37882077     0.09800
Cu386      Cu  0.70399783  0.69014951  0.42285446     0.44200
Cu387      Cu  0.73756018  0.69754604  0.36427154     0.42000
Cu388      Cu  0.68445070  0.65053363  0.36552213     0.43900
N389        N  0.67680275  0.65806980  0.42266679    -0.33800
N390        N  0.66892893  0.64477482  0.40210915    -0.28100
C391        C  0.65150530  0.62537774  0.40912123    -0.04200
C392        C  0.64834204  0.62657077  0.43515268     0.08000
C393        C  0.66498415  0.64708984  0.44320918     0.01800
H394        H  0.64307256  0.61038206  0.39648439     0.09500
H395        H  0.66885421  0.65301161  0.46261405     0.08500
N396        N  0.70666046  0.65790148  0.33281047    -0.35300
N397        N  0.72684481  0.67466759  0.33330300    -0.27500
C398        C  0.73811476  0.67524212  0.31048776    -0.02700
C399        C  0.72446508  0.65799454  0.29448570     0.05900
C400        C  0.70445868  0.64746750  0.30921660     0.04000
H401        H  0.75468932  0.68792719  0.30579184     0.09100
H402        H  0.68955523  0.63317956  0.30324918     0.07900
N403        N  0.82273654  0.73533518  0.01640991    -0.26500
N404        N  0.83343349  0.72756211  0.99519954    -0.34300
C405        C  0.83489833  0.74833898  0.97874735     0.01900
C406        C  0.82471357  0.77033538  0.99004276     0.07900
C407        C  0.81709374  0.76138396  0.01397099    -0.05200
H408        H  0.84349281  0.74770815  0.96014290     0.08600
H409        H  0.80873118  0.77298617  0.02878405     0.09800
Cu410      Cu  0.84806203  0.69008911  0.99023343     0.44200
Cu411      Cu  0.81820177  0.71039719  0.04812102     0.42000
Cu412      Cu  0.85339678  0.64898103  0.04662857     0.43900
N413        N  0.86691784  0.65455868  0.99101135    -0.33800
N414        N  0.87028429  0.64021668  0.01193743    -0.28100
C415        C  0.88475689  0.61943100  0.00637052    -0.04200
C416        C  0.89026676  0.62082660  0.98073497     0.08000
C417        C  0.87863888  0.64311563  0.97147533     0.01800
H418        H  0.89025178  0.60416003  0.01975938     0.09500
H419        H  0.87897162  0.65069483  0.95216682     0.08500
N420        N  0.83163175  0.66049262  0.07753761    -0.35300
N421        N  0.81828431  0.68236273  0.07765937    -0.27500
C422        C  0.80586482  0.68357436  0.09988563    -0.02700
C423        C  0.81170461  0.66147379  0.11460056     0.05900
C424        C  0.82819710  0.64740581  0.09986311     0.04000
H425        H  0.79394571  0.69973759  0.10511715     0.09100
H426        H  0.83699970  0.62890751  0.10498404     0.07900
N427        N  0.90438207  0.60223994  0.96637715    -0.02600
C428        C  0.92823662  0.59465333  0.97126475    -0.00100
C429        C  0.93524400  0.57623390  0.95324659    -0.22900
C430        C  0.91513820  0.57268670  0.93671988    -0.23100
C431        C  0.89650078  0.58895595  0.94515935    -0.00200
H432        H  0.95345793  0.56733589  0.95149695     0.13600
H433        H  0.91413571  0.55948542  0.92046047     0.13700
N434        N  0.13339768  0.60215794  0.99332345    -0.02600
C435        C  0.10783452  0.60187107  0.99039473    -0.00100
C436        C  0.10069721  0.58967364  0.96775908    -0.22900
C437        C  0.12253818  0.58281275  0.95598984    -0.23100
C438        C  0.14225146  0.59096723  0.97184278    -0.00200
H439        H  0.08160176  0.58624340  0.96055504     0.13600
H440        H  0.12391894  0.57290044  0.93785137     0.13700
C441        C  0.04311339  0.62283040  0.00743311     0.19500
C442        C  0.02547547  0.64022004  0.99716732    -0.18600
C443        C  0.99955178  0.63279991  0.99679980    -0.10800
C444        C  0.99081243  0.60762202  0.00657084     0.21800
C445        C  0.00810054  0.59166503  0.01934073    -0.20200
C446        C  0.03398712  0.59919866  0.01991226    -0.11000
C447        C  0.96606350  0.59475790  0.99853033    -0.15200
C448        C  0.94649643  0.60815134  0.98911775    -0.29000
C449        C  0.06989264  0.62607212  0.99878211    -0.03300
C450        C  0.08911082  0.61218439  0.00828330    -0.39900
H451        H  0.03198237  0.65845260  0.98728362     0.12900
H452        H  0.98696156  0.64555993  0.98654302     0.12600
H453        H  0.00190473  0.57213933  0.02695529     0.12000
H454        H  0.04689409  0.58505433  0.02775352     0.12200
H455        H  0.96526351  0.57291485  0.99706550     0.15000
H456        H  0.94555444  0.62970916  0.99177202     0.13700
H457        H  0.07271006  0.63588605  0.98039713     0.11400
H458        H  0.08801357  0.60326042  0.02712650     0.13400
C459        C  0.77501265  0.66006490  0.17838883     0.19500
C460        C  0.74950297  0.66274635  0.18508859    -0.18600
C461        C  0.74173926  0.66070274  0.21051268    -0.10800
C462        C  0.75949067  0.65633744  0.22988781     0.21800
C463        C  0.78490970  0.65321469  0.22312442    -0.20200
C464        C  0.79259639  0.65487765  0.19770814    -0.11000
C465        C  0.75298529  0.65798503  0.25734435    -0.15200
C466        C  0.72960599  0.65314828  0.26719975    -0.29000
C467        C  0.78299187  0.66517360  0.15156237    -0.03300
C468        C  0.80350675  0.65472725  0.14091915    -0.39900
H469        H  0.73560843  0.66702179  0.17062594     0.12900
H470        H  0.72212093  0.66383528  0.21499463     0.12600
H471        H  0.79904919  0.65017328  0.23767409     0.12000
H472        H  0.81250393  0.65334647  0.19343974     0.12200
H473        H  0.76849030  0.66354790  0.27015868     0.15000
H474        H  0.71411562  0.64548340  0.25530523     0.13700
H475        H  0.77120361  0.67778783  0.14002106     0.11400
H476        H  0.81437831  0.64039686  0.15147446     0.13400
C477        C  0.49185749  0.62054885  0.45760566     0.19500
C478        C  0.51259723  0.63800050  0.46415327    -0.18600
C479        C  0.53701608  0.63380523  0.45498401    -0.10800
C480        C  0.54126771  0.61177186  0.43918739     0.21800
C481        C  0.52015535  0.59570065  0.43100646    -0.20200
C482        C  0.49573293  0.60001643  0.44002848    -0.11000
C483        C  0.56704885  0.60125105  0.43560362    -0.15200
C484        C  0.58931228  0.61433893  0.44159153    -0.29000
C485        C  0.46838486  0.62072620  0.47331611    -0.03300
C486        C  0.44561479  0.60899421  0.46695990    -0.39900
H487        H  0.51022201  0.65385497  0.47783030     0.12900
H488        H  0.55267173  0.64646223  0.46206273     0.12600
H489        H  0.52281876  0.57841377  0.41905831     0.12000
H490        H  0.48042822  0.58581611  0.43488638     0.12200
H491        H  0.56743010  0.57980846  0.43170092     0.15000
H492        H  0.59056734  0.63602087  0.44398795     0.13700
H493        H  0.47079960  0.62853685  0.49244436     0.11400
H494        H  0.44166789  0.60276440  0.44759356     0.13400
C495        C  0.76135831  0.55591646  0.72814507     0.19500
C496        C  0.74830950  0.53480136  0.71523411    -0.18600
C497        C  0.74576129  0.53533157  0.68877228    -0.10800
C498        C  0.75600641  0.55721281  0.67445239     0.21800
C499        C  0.76831173  0.57880124  0.68734018    -0.20200
C500        C  0.77113167  0.57814480  0.71386116    -0.11000
C501        C  0.75328915  0.55831140  0.64624113    -0.15200
C502        C  0.75319443  0.53607143  0.63173157    -0.29000
C503        C  0.76392044  0.55381644  0.75638242    -0.03300
C504        C  0.78111697  0.56820042  0.77043394    -0.39900
H505        H  0.74020231  0.51762006  0.72566805     0.12900
H506        H  0.73540834  0.51874856  0.67960809     0.12600
H507        H  0.77600160  0.59611472  0.67681636     0.12000
H508        H  0.78066385  0.59522820  0.72298922     0.12200
H509        H  0.75236162  0.57793375  0.63716670     0.15000
H510        H  0.75620970  0.51668871  0.64058991     0.13700
H511        H  0.75180026  0.53860607  0.76582300     0.11400
H512        H  0.79410485  0.58283793  0.76140007     0.13400
C513        C  0.25994151  0.64100128  0.26838178     0.19500
C514        C  0.23897907  0.65565986  0.26101153    -0.18600
C515        C  0.22962760  0.65454942  0.23614409    -0.10800
C516        C  0.24102320  0.63873523  0.21779254     0.21800
C517        C  0.26134640  0.62316277  0.22527067    -0.20200
C518        C  0.27088818  0.62441514  0.25024274    -0.11000
C519        C  0.23234590  0.63890781  0.19074119    -0.15200
C520        C  0.22521839  0.66170437  0.17931660    -0.29000
C521        C  0.27041542  0.64538047  0.29455453    -0.03300
C522        C  0.28769254  0.63037682  0.30637214    -0.39900
H523        H  0.22998872  0.66847729  0.27449706     0.12900
H524        H  0.21352602  0.66625973  0.23125385     0.12600
H525        H  0.27043327  0.61073867  0.21152419     0.12000
H526        H  0.28721329  0.61302344  0.25493843     0.12200
H527        H  0.23396517  0.62082370  0.17951037     0.15000
H528        H  0.22632679  0.68039011  0.18992262     0.13700
H529        H  0.26322807  0.66230338  0.30472258     0.11400
H530        H  0.29437234  0.61246720  0.29745775     0.13400
C531        C  0.25809844  0.56071556  0.76564300     0.19500
C532        C  0.24172522  0.57064697  0.74712951    -0.18600
C533        C  0.24821701  0.57034168  0.72134918    -0.10800
C534        C  0.27149918  0.56051993  0.71358231     0.21800
C535        C  0.28836354  0.55173931  0.73218256    -0.20200
C536        C  0.28171119  0.55164450  0.75790915    -0.11000
C537        C  0.27882180  0.55951171  0.68632398    -0.15200
C538        C  0.26184672  0.55405061  0.66772030    -0.29000
C539        C  0.25015310  0.56017508  0.79280021    -0.03300
C540        C  0.25743137  0.54112802  0.80921627    -0.39900
H541        H  0.22363176  0.57817632  0.75258945     0.12900
H542        H  0.23510244  0.57801557  0.70755433     0.12600
H543        H  0.30657476  0.54448620  0.72674549     0.12000
H544        H  0.29519683  0.54469654  0.77169933     0.12200
H545        H  0.29886819  0.56122820  0.68168266     0.15000
H546        H  0.24206440  0.54984028  0.67252448     0.13700
H547        H  0.23681581  0.57473994  0.79896977     0.11400
H548        H  0.26929547  0.52539607  0.80258709     0.13400
C549        C  0.51112666  0.11548971  0.97453182     0.19500
C550        C  0.51018996  0.09274511  0.95879648    -0.18600
C551        C  0.53235536  0.08378646  0.94792216    -0.10800
C552        C  0.55601259  0.09714147  0.95245847     0.21800
C553        C  0.55698191  0.11993520  0.96813185    -0.20200
C554        C  0.53479012  0.12891260  0.97901961    -0.11000
C555        C  0.57861783  0.08703313  0.93939365    -0.15200
C556        C  0.60297582  0.09588216  0.94299479    -0.29000
C557        C  0.48838623  0.12570333  0.98731433    -0.03300
C558        C  0.46453191  0.11455746  0.98603005    -0.39900
H559        H  0.49257456  0.08166308  0.95471081     0.12900
H560        H  0.53096002  0.06627168  0.93578371     0.12600
H561        H  0.57461889  0.13115165  0.97188596     0.12000
H562        H  0.53615681  0.14649501  0.99107516     0.12200
H563        H  0.57465236  0.07112463  0.92578045     0.15000
H564        H  0.60786978  0.11069026  0.95739096     0.13700
H565        H  0.49186496  0.14333435  0.99904925     0.11400
H566        H  0.46004669  0.09755768  0.97384180     0.13400
C567        C  0.80039550  0.87674580  0.46091433     0.19500
C568        C  0.79959212  0.86713278  0.43594975    -0.18600
C569        C  0.78821444  0.84186700  0.43039564    -0.10800
C570        C  0.77764626  0.82528231  0.44984506     0.21800
C571        C  0.77848415  0.83482380  0.47483369    -0.20200
C572        C  0.78989729  0.86010873  0.48040634    -0.11000
C573        C  0.76501018  0.79839750  0.44464749    -0.15200
C574        C  0.76998320  0.78405289  0.42386508    -0.29000
C575        C  0.81257586  0.90397098  0.46568729    -0.03300
C576        C  0.80927597  0.91783174  0.48713927    -0.39900
H577        H  0.80747679  0.87942006  0.42055809     0.12900
H578        H  0.78730224  0.83581865  0.41073390     0.12600
H579        H  0.77050048  0.82253056  0.49017387     0.12000
H580        H  0.79066115  0.86614433  0.50005947     0.12200
H581        H  0.75148165  0.79010847  0.45846173     0.15000
H582        H  0.78425444  0.79155832  0.41049234     0.13700
H583        H  0.82441633  0.91307314  0.45080726     0.11400
H584        H  0.79716768  0.90950005  0.50208774     0.13400
C585        C  0.81369057  0.89976086  0.95992955     0.19500
C586        C  0.82059701  0.87853035  0.94442189    -0.18600
C587        C  0.82083908  0.85222711  0.95384418    -0.10800
C588        C  0.81457081  0.84647786  0.97936695     0.21800
C589        C  0.80781230  0.86781248  0.99496133    -0.20200
C590        C  0.80740635  0.89418467  0.98543469    -0.11000
C591        C  0.81466896  0.81873922  0.99045434    -0.15200
C592        C  0.82413635  0.79752469  0.97858134    -0.29000
C593        C  0.81323331  0.92714061  0.94842904    -0.03300
C594        C  0.79963428  0.94716064  0.95750535    -0.39900
H595        H  0.82544537  0.88222953  0.92468402     0.12900
H596        H  0.82566433  0.83670122  0.94074987     0.12600
H597        H  0.80293490  0.86409100  0.01468493     0.12000
H598        H  0.80248786  0.91004392  0.99819158     0.12200
H599        H  0.80704533  0.81584980  0.00946032     0.15000
H600        H  0.83245205  0.79974811  0.95988948     0.13700
H601        H  0.82317429  0.93017709  0.93056330     0.11400
H602        H  0.78876683  0.94433525  0.97483358     0.13400
C603        C  0.83065824  0.05221777  0.67726539     0.19500
C604        C  0.82732552  0.03015235  0.69392799    -0.18600
C605        C  0.82001322  0.03371582  0.71909238    -0.10800
C606        C  0.81572180  0.05955907  0.72836074     0.21800
C607        C  0.81879946  0.08171001  0.71171575    -0.20200
C608        C  0.82636913  0.07815948  0.68644739    -0.11000
C609        C  0.80677095  0.06345314  0.75486244    -0.15200
C610        C  0.81341356  0.04723858  0.77412075    -0.29000
C611        C  0.83689723  0.04664486  0.65026276    -0.03300
C612        C  0.84596022  0.06501016  0.63314402    -0.39900
H613        H  0.83009736  0.00990049  0.68735374     0.12900
H614        H  0.81701142  0.01603469  0.73101926     0.12600
H615        H  0.81526774  0.10179007  0.71826978     0.12000
H616        H  0.82812082  0.09562669  0.67410661     0.12200
H617        H  0.79475830  0.08010482  0.75859452     0.15000
H618        H  0.82693429  0.03189314  0.77072034     0.13700
H619        H  0.83418268  0.02583184  0.64435765     0.11400
H620        H  0.85028363  0.08568393  0.63871369     0.13400
C621        C  0.00949017  0.10734596  0.46655985     0.19500
C622        C  0.00952626  0.08188336  0.47833739    -0.18600
C623        C  0.03195695  0.07238099  0.48852621    -0.10800
C624        C  0.05496727  0.08782575  0.48706304     0.21800
C625        C  0.05489320  0.11346044  0.47563100    -0.20200
C626        C  0.03242823  0.12300826  0.46548820    -0.11000
C627        C  0.07801493  0.07669360  0.49882697    -0.15200
C628        C  0.10224737  0.08621953  0.49540693    -0.29000
C629        C  0.98678190  0.11763491  0.45339635    -0.03300
C630        C  0.96299041  0.10611847  0.45389744    -0.39900
H631        H  0.99253607  0.06891180  0.47933938     0.12900
H632        H  0.03135265  0.05263175  0.49741024     0.12600
H633        H  0.07196342  0.12633400  0.47462938     0.12000
H634        H  0.03304993  0.14271213  0.45651093     0.12200
H635        H  0.07450322  0.05923275  0.51097262     0.15000
H636        H  0.10649421  0.10268886  0.48227010     0.13700
H637        H  0.99028863  0.13556357  0.44182213     0.11400
H638        H  0.95826440  0.08926881  0.46643942     0.13400
C639        C  0.30254688  0.87482888  0.98469889     0.19500
C640        C  0.29614731  0.85177985  0.97030291    -0.18600
C641        C  0.28389472  0.82904359  0.98142531    -0.10800
C642        C  0.27759099  0.82881387  0.00738440     0.21800
C643        C  0.28433159  0.85163697  0.02188968    -0.20200
C644        C  0.29658342  0.87436726  0.01079319    -0.11000
C645        C  0.26485041  0.80504725  0.02030855    -0.15200
C646        C  0.25195288  0.78497761  0.00807831    -0.29000
C647        C  0.31515111  0.89865613  0.97154958    -0.03300
C648        C  0.32150122  0.92228655  0.98283815    -0.39900
H649        H  0.30066654  0.85131840  0.95026476     0.12900
H650        H  0.27984761  0.81166383  0.96961876     0.12600
H651        H  0.27997900  0.85195756  0.04197460     0.12000
H652        H  0.30118234  0.89128210  0.02295874     0.12200
H653        H  0.26569738  0.80446063  0.04090173     0.15000
H654        H  0.24981337  0.78566056  0.98761476     0.13700
H655        H  0.31911504  0.89666720  0.95144829     0.11400
H656        H  0.31807573  0.92509044  0.00285844     0.13400
C657        C  0.30917901  0.82489360  0.48034566     0.19500
C658        C  0.32234521  0.83699959  0.50081319    -0.18600
C659        C  0.31657739  0.86265386  0.50924487    -0.10800
C660        C  0.29717995  0.87682580  0.49748959     0.21800
C661        C  0.28389932  0.86459907  0.47716303    -0.20200
C662        C  0.28965574  0.83897111  0.46875328    -0.11000
C663        C  0.29024869  0.90435408  0.50534013    -0.15200
C664        C  0.29860347  0.91673831  0.52665078    -0.29000
C665        C  0.31610278  0.79749747  0.47213352    -0.03300
C666        C  0.30893822  0.78632579  0.44984546    -0.39900
H667        H  0.33739205  0.82665647  0.51020807     0.12900
H668        H  0.32769075  0.87119082  0.52470083     0.12600
H669        H  0.26880201  0.87487370  0.46778237     0.12000
H670        H  0.27840672  0.83032305  0.45343591     0.12200
H671        H  0.27719397  0.91466850  0.49312654     0.15000
H672        H  0.31106712  0.90678456  0.53966558     0.13700
H673        H  0.32800168  0.78630667  0.48485205     0.11400
H674        H  0.29777398  0.79734703  0.43639751     0.09800
C675        C  0.34414755  0.05982534  0.76822051     0.19500
C676        C  0.32787698  0.07867746  0.75792704    -0.18600
C677        C  0.31880762  0.07610823  0.73286430    -0.10800
C678        C  0.32618755  0.05472188  0.71750384     0.21800
C679        C  0.34332413  0.03669423  0.72760943    -0.20200
C680        C  0.35226203  0.03922958  0.75247982    -0.11000
C681        C  0.31667173  0.04965433  0.69111700    -0.15200
C682        C  0.30030198  0.06459898  0.67803541    -0.29000
C683        C  0.35186917  0.06121618  0.79551905    -0.03300
C684        C  0.35501092  0.03861239  0.80922808    -0.39900
H685        H  0.32154458  0.09492570  0.76955291     0.12900
H686        H  0.30584820  0.09064545  0.72590829     0.12600
H687        H  0.34970958  0.02024889  0.71625419     0.12000
H688        H  0.36549963  0.02488930  0.75937425     0.12200
H689        H  0.32364697  0.03198798  0.68199217     0.15000
H690        H  0.29278336  0.08240898  0.68635715     0.13700
H691        H  0.35305861  0.08066001  0.80484811     0.11400
H692        H  0.35146735  0.01918490  0.80025821     0.13400
C693        C  0.77812849  0.32366546  0.42909627     0.19500
C694        C  0.78009724  0.34758476  0.41472064    -0.18600
C695        C  0.77711818  0.37260958  0.42613787    -0.10800
C696        C  0.77177165  0.37416937  0.45224985     0.21800
C697        C  0.77001861  0.35027422  0.46661861    -0.20200
C698        C  0.77293692  0.32530546  0.45522031    -0.11000
C699        C  0.76809304  0.40013044  0.46535649    -0.15200
C700        C  0.76061151  0.42253503  0.45355461    -0.29000
C701        C  0.78076170  0.29738916  0.41616327    -0.03300
C702        C  0.78771358  0.27498117  0.42833226    -0.39900
H703        H  0.78412045  0.34691972  0.39457770     0.12900
H704        H  0.77930037  0.39058030  0.41450838     0.12600
H705        H  0.76588782  0.35087141  0.48674229     0.12000
H706        H  0.77052950  0.30738407  0.46688444     0.12200
H707        H  0.77034240  0.40024319  0.48585146     0.15000
H708        H  0.75704080  0.42246614  0.43326183     0.13700
H709        H  0.77770179  0.29678318  0.39576952     0.11400
H710        H  0.79255310  0.27571225  0.44835272     0.13400
C711        C  0.73202418  0.34211293  0.96191434     0.19500
C712        C  0.73071113  0.36470142  0.97763845    -0.18600
C713        C  0.73392230  0.39081708  0.96765118    -0.10800
C714        C  0.73877577  0.39490704  0.94161369     0.21800
C715        C  0.73981699  0.37237607  0.92584284    -0.20200
C716        C  0.73674600  0.34628545  0.93582756    -0.11000
C717        C  0.74293555  0.42220488  0.93016117    -0.15200
C718        C  0.75213380  0.44369973  0.94325255    -0.29000
C719        C  0.72891555  0.31471320  0.97354465    -0.03300
C720        C  0.72333364  0.29222860  0.96014913    -0.39900
H721        H  0.72704672  0.36214045  0.99776437     0.12900
H722        H  0.73230367  0.40765677  0.98033284     0.12600
H723        H  0.74357996  0.37495741  0.90573636     0.12000
H724        H  0.73864319  0.32962804  0.92302521     0.12200
H725        H  0.74001061  0.42412972  0.90983023     0.15000
H726        H  0.75664352  0.44170034  0.96326330     0.13700
H727        H  0.73057527  0.31318582  0.99405583     0.11400
H728        H  0.72042116  0.29335947  0.93980373     0.13400
C729        C  0.75571605  0.15802974  0.21664709     0.19500
C730        C  0.73063441  0.15448359  0.20783841    -0.18600
C731        C  0.72513905  0.15532170  0.18177417    -0.10800
C732        C  0.74461960  0.16041618  0.16397938     0.21800
C733        C  0.76967992  0.16408742  0.17280042    -0.20200
C734        C  0.77524528  0.16257884  0.19880041    -0.11000
C735        C  0.73917073  0.16439902  0.13646890    -0.15200
C736        C  0.72042168  0.15080374  0.12378789    -0.29000
C737        C  0.76073447  0.15921112  0.24449618    -0.03300
C738        C  0.78203209  0.15056609  0.25538112    -0.39900
H739        H  0.71520944  0.15133104  0.22120751     0.12900
H740        H  0.70556413  0.15307737  0.17566320     0.12600
H741        H  0.78498596  0.16843286  0.15951925     0.12000
H742        H  0.79469552  0.16607511  0.20496093     0.12200
H743        H  0.75161508  0.17862868  0.12612517     0.15000
H744        H  0.70921262  0.13489048  0.13332451     0.13700
H745        H  0.74609547  0.16695895  0.25649472     0.11400
H746        H  0.79581873  0.14066953  0.24390145     0.13400
C747        C  0.26705522  0.32115995  0.00917593     0.19500
C748        C  0.24854427  0.33843545  0.01742906    -0.18600
C749        C  0.24646300  0.36393918  0.00636390    -0.10800
C750        C  0.26313651  0.37287464  0.98691690     0.21800
C751        C  0.28172213  0.35567081  0.97875478    -0.20200
C752        C  0.28385711  0.33022920  0.98986084    -0.11000
C753        C  0.26111597  0.39943054  0.97401097    -0.15200
C754        C  0.25084311  0.42076449  0.98487941    -0.29000
C755        C  0.26869238  0.29422746  0.02155861    -0.03300
C756        C  0.27938602  0.27333652  0.01038098    -0.39900
H757        H  0.23539748  0.33202138  0.03228020     0.12900
H758        H  0.23144063  0.37627594  0.01274146     0.12600
H759        H  0.29482513  0.36205159  0.96385095     0.12000
H760        H  0.29895515  0.31801501  0.98346804     0.12200
H761        H  0.26900984  0.40159613  0.95505386     0.15000
H762        H  0.24426733  0.41945633  0.00436187     0.13700
H763        H  0.26031542  0.29141644  0.04025030     0.11400
H764        H  0.28670309  0.27543299  0.99121782     0.13400
C765        C  0.25330838  0.37724480  0.49138238     0.19500
C766        C  0.26777716  0.36308540  0.47406798    -0.18600
C767        C  0.26236801  0.33569022  0.46939074    -0.10800
C768        C  0.24214663  0.32168931  0.48188761     0.21800
C769        C  0.22788849  0.33566877  0.49942670    -0.20200
C770        C  0.23325051  0.36305234  0.50408852    -0.11000
C771        C  0.23556321  0.29253475  0.47757677    -0.15200
C772        C  0.24165284  0.27948076  0.45630953    -0.29000
C773        C  0.26032626  0.40639575  0.49588657    -0.03300
C774        C  0.24798575  0.42225977  0.51186317    -0.39900
H775        H  0.28351373  0.37322941  0.46419025     0.12900
H776        H  0.27439725  0.32556846  0.45632093     0.12600
H777        H  0.21234914  0.32537841  0.50948683     0.12000
H778        H  0.22155411  0.37261882  0.51777706     0.12200
H779        H  0.22423883  0.28182898  0.49193454     0.15000
H780        H  0.25177729  0.29021273  0.44116713     0.13700
H781        H  0.27683808  0.41499911  0.48596451     0.11400
H782        H  0.23158993  0.41443519  0.52228733     0.13400
C783        C  0.25162721  0.13809479  0.21786131     0.19500
C784        C  0.22691912  0.13884627  0.22759548    -0.18600
C785        C  0.22251922  0.13689196  0.25379939    -0.10800
C786        C  0.24288938  0.13464435  0.27080635     0.21800
C787        C  0.26750740  0.13347163  0.26106449    -0.20200
C788        C  0.27186085  0.13496614  0.23491004    -0.11000
C789        C  0.23960837  0.13694787  0.29867663    -0.15200
C790        C  0.21873214  0.12806284  0.31142066    -0.29000
C791        C  0.25602469  0.14309476  0.19026767    -0.03300
C792        C  0.27605623  0.13405201  0.17771523    -0.39900
H793        H  0.21104423  0.14155904  0.21491651     0.12900
H794        H  0.20338896  0.13852828  0.26075832     0.12600
H795        H  0.28354106  0.13213864  0.27381459     0.12000
H796        H  0.29123466  0.13503791  0.22827772     0.12200
H797        H  0.25530493  0.14644995  0.30921064     0.15000
H798        H  0.20369174  0.11646300  0.30178087     0.13700
H799        H  0.24228810  0.15461970  0.18000338     0.11400
H800        H  0.28885512  0.12081612  0.18725292     0.13400
loop_ 
_geom_bond_atom_site_label_1 
_geom_bond_atom_site_label_2 
_geom_bond_distance 
_geom_bond_site_symmetry_2 
_ccdc_geom_bond_type 
N1            N2   1.321       .  A
N1            C5   1.343       .  A
N1           Cu9   2.065       .  S
N2            C3   1.349       .  A
N2           Cu8   2.088       .  S
C3            C4   1.391       .  A
C3            H6   1.081       .  S
C4            C5   1.381       .  A
C4          C772   1.482       .  S
C5            H7   1.082       .  S
Cu8          N11   2.090       .  S
Cu9          N19   2.065       .  S
Cu10         N12   2.096       .  S
Cu10         N18   2.095       .  S
N11          N12   1.327       .  A
N11          C15   1.348       .  A
N12          C13   1.350       .  A
C13          C14   1.381       .  A
C13          H16   1.082       .  S
C14          C15   1.379       .  A
C14         N152   1.437       .  S
C15          H17   1.082       .  S
N18          N19   1.322       .  A
N18          C22   1.351       .  A
N19          C20   1.342       .  A
C20          C21   1.382       .  A
C20          H23   1.082       .  S
C21          C22   1.388       .  A
C21         C790   1.482       .  S
C22          H24   1.082       .  S
N25          N26   1.323       .  A
N25          C29   1.349       .  A
N25         Cu33   2.089       .  S
N26          C27   1.343       .  A
N26         Cu32   2.071       .  S
C27          C28   1.380       .  A
C27          H30   1.082   1_554  S
C28          C29   1.389       .  A
C28         C756   1.479       .  S
C29          H31   1.082       .  S
Cu32         N35   2.069       .  S
Cu33         N43   2.089       .  S
Cu34         N36   2.079       .  S
Cu34         N42   2.079       .  S
N35          N36   1.320       .  A
N35          C39   1.346       .  A
N36          C37   1.344       .  A
C37          C38   1.386       .  A
C37          H40   1.082       .  S
C38          C39   1.383       .  A
C38         C218   1.472       .  S
C39          H41   1.082   1_554  S
N42          N43   1.323       .  A
N42          C46   1.345       .  A
N43          C44   1.348       .  A
C44          C45   1.388       .  A
C44          H47   1.082       .  S
C45          C46   1.382       .  A
C45         C792   1.481       .  S
C46          H48   1.082       .  S
N49          N50   1.320       .  A
N49          C53   1.348       .  A
N49         Cu57   2.078   1_556  S
N50          C51   1.343       .  A
N50         Cu56   2.063       .  S
C51          C52   1.381       .  A
C51          H54   1.082       .  S
C52          C53   1.389       .  A
C52         C720   1.478       .  S
C53          H55   1.081   1_556  S
Cu56         N59   2.063       .  S
Cu57         N67   2.079       .  S
Cu58         N60   2.107   1_554  S
Cu58         N66   2.109       .  S
N59          N60   1.325       .  A
N59          C63   1.342       .  A
N60          C61   1.354       .  A
C61          C62   1.387       .  A
C61          H64   1.082       .  S
C62          C63   1.374       .  A
C62         N207   1.437       .  S
C63          H65   1.082       .  S
N66          N67   1.325       .  A
N66          C70   1.351       .  A
N67          C68   1.345       .  A
C68          C69   1.384       .  A
C68          H71   1.082       .  S
C69          C70   1.388       .  A
C69         C736   1.486       .  S
C70          H72   1.082       .  S
N73          N74   1.323       .  A
N73          C77   1.347       .  A
N73         Cu81   2.082       .  S
N74          C75   1.344       .  A
N74         Cu80   2.076       .  S
C75          C76   1.382       .  A
C75          H78   1.082       .  S
C76          C77   1.387       .  A
C76         C702   1.479       .  S
C77          H79   1.081       .  S
Cu80         N83   2.075       .  S
Cu81         N91   2.082       .  S
Cu82         N84   2.094       .  S
Cu82         N90   2.094       .  S
N83          N84   1.322       .  A
N83          C87   1.348       .  A
N84          C85   1.345       .  A
C85          C86   1.388       .  A
C85          H88   1.082       .  S
C86          C87   1.384       .  A
C86         C149   1.476       .  S
C87          H89   1.082       .  S
N90          N91   1.323       .  A
N90          C94   1.348       .  A
N91          C92   1.348       .  A
C92          C93   1.386       .  A
C92          H95   1.082       .  S
C93          C94   1.386       .  A
C93         C738   1.485       .  S
C94          H96   1.082       .  S
N97          N98   1.321       .  A
N97         C101   1.344       .  A
N97        Cu105   2.069   1_565  S
N98          C99   1.348       .  A
N98        Cu104   2.085   1_565  S
C99         C100   1.390       .  A
C99         H102   1.081       .  S
C100        C101   1.381       .  A
C100        C664   1.482       .  S
C101        H103   1.082       .  S
Cu104       N107   2.086       .  S
Cu105       N115   2.069       .  S
Cu106       N108   2.098       .  S
Cu106       N114   2.097       .  S
N107        N108   1.324       .  A
N107        C111   1.347       .  A
N108        C109   1.347       .  A
C109        C110   1.387       .  A
C109        H112   1.082       .  S
C110        C111   1.385       .  A
C110        C156   1.474       .  S
C111        H113   1.082       .  S
N114        N115   1.321       .  A
N114        C118   1.351       .  A
N115        C116   1.343       .  A
C116        C117   1.387       .  A
C116        H119   1.081       .  S
C117        C118   1.390       .  A
C117        C682   1.491       .  S
C118        H120   1.082       .  S
N121        N122   1.320       .  A
N121        C125   1.349       .  A
N121       Cu129   2.078       .  S
N122        C123   1.343       .  A
N122       Cu128   2.067   1_565  S
C123        C124   1.382       .  A
C123        H126   1.082   1_556  S
C124        C125   1.390       .  A
C124        C648   1.481       .  S
C125        H127   1.082       .  S
Cu128       N131   2.068       .  S
Cu129       N139   2.079   1_565  S
Cu130       N132   2.106       .  S
Cu130       N138   2.107       .  S
N131        N132   1.325       .  A
N131        C135   1.343       .  A
N132        C133   1.353       .  A
C133        C134   1.387       .  A
C133        H136   1.082       .  S
C134        C135   1.376       .  A
C134        N214   1.440   1_556  S
C135        H137   1.082   1_556  S
N138        N139   1.325       .  A
N138        C142   1.354       .  A
N139        C140   1.341       .  A
C140        C141   1.378       .  A
C140        H143   1.082   1_545  S
C141        C142   1.391       .  A
C141        C684   1.481       .  S
C142        H144   1.082       .  S
N145        C149   1.358       .  A
N145        C146   1.362       .  A
N145        C196   1.440       .  S
C146        C147   1.389       .  A
C146        C630   1.493       .  S
C147        C148   1.372       .  A
C147        H150   1.081       .  S
C148        C149   1.379       .  A
C148        H151   1.082       .  S
N152        C156   1.356       .  A
N152        C153   1.361       .  A
C153        C154   1.391       .  A
C153        C628   1.495       .  S
C154        C155   1.374       .  A
C154        H157   1.081       .  S
C155        C156   1.378       .  A
C155        H158   1.082       .  S
N159        N160   1.321       .  A
N159        C163   1.344   1_545  A
N159       Cu167   2.073       .  S
N160        C161   1.346   1_545  A
N160       Cu166   2.074       .  S
C161        C162   1.384       .  A
C161        H164   1.082       .  S
C162        C163   1.387       .  A
C162        C594   1.481       .  S
C163        H165   1.081       .  S
Cu166       N169   2.074       .  S
Cu167       N177   2.073       .  S
Cu168       N170   2.091       .  S
Cu168       N176   2.090       .  S
N169        N170   1.324       .  A
N169        C173   1.347       .  A
N170        C171   1.345       .  A
C171        C172   1.385       .  A
C171        H174   1.082       .  S
C172        C173   1.382       .  A
C172        C211   1.474       .  S
C173        H175   1.082       .  S
N176        N177   1.322       .  A
N176        C180   1.351       .  A
N177        C178   1.343       .  A
C178        C179   1.382       .  A
C178        H181   1.082       .  S
C179        C180   1.390       .  A
C179        C610   1.481       .  S
C180        H182   1.082       .  S
N183        N184   1.321       .  A
N183        C187   1.340       .  A
N183       Cu191   2.055   1_565  S
N184        C185   1.351       .  A
N184       Cu190   2.093   1_565  S
C185        C186   1.392       .  A
C185        H188   1.081       .  S
C186        C187   1.377       .  A
C186        C576   1.477       .  S
C187        H189   1.082       .  S
Cu190       N193   2.095       .  S
Cu191       N201   2.055       .  S
Cu192       N194   2.104       .  S
Cu192       N200   2.102       .  S
N193        N194   1.328       .  A
N193        C197   1.348       .  A
N194        C195   1.351       .  A
C195        C196   1.382       .  A
C195        H198   1.082       .  S
C196        C197   1.380       .  A
C197        H199   1.082       .  S
N200        N201   1.320       .  A
N200        C204   1.352       .  A
N201        C202   1.342       .  A
C202        C203   1.384       .  A
C202        H205   1.081       .  S
C203        C204   1.391       .  A
C203        C612   1.488       .  S
C204        H206   1.081       .  S
N207        C211   1.357       .  A
N207        C208   1.359       .  A
C208        C209   1.390       .  A
C208        C556   1.491       .  S
C209        C210   1.373       .  A
C209        H212   1.081       .  S
C210        C211   1.378       .  A
C210        H213   1.082       .  S
N214        C218   1.356       .  A
N214        C215   1.360       .  A
C215        C216   1.390       .  A
C215        C558   1.489   1_554  S
C216        C217   1.372       .  A
C216        H219   1.081       .  S
C217        C218   1.377       .  A
C217        H220   1.082       .  S
N221        N222   1.323       .  A
N221        C225   1.343       .  A
N221       Cu229   2.073       .  S
N222        C223   1.350       .  A
N222       Cu228   2.092       .  S
C223        C224   1.390       .  A
C223        H226   1.081       .  S
C224        C225   1.380       .  A
C224        C774   1.482       .  S
C225        H227   1.082       .  S
Cu228       N231   2.092       .  S
Cu229       N239   2.072       .  S
Cu230       N232   2.090       .  S
Cu230       N238   2.088       .  S
N231        N232   1.324       .  A
N231        C235   1.351       .  A
N232        C233   1.344       .  A
C233        C234   1.386       .  A
C233        H236   1.082       .  S
C234        C235   1.387       .  A
C234        C369   1.479       .  S
C235        H237   1.082       .  S
N238        N239   1.321       .  A
N238        C242   1.350       .  A
N239        C240   1.345       .  A
C240        C241   1.382       .  A
C240        H243   1.082       .  S
C241        C242   1.389       .  A
C241        C538   1.482       .  S
C242        H244   1.082       .  S
N245        N246   1.322       .  A
N245        C249   1.346       .  A
N245       Cu253   2.077       .  S
N246        C247   1.345       .  A
N246       Cu252   2.076       .  S
C247        C248   1.383       .  A
C247        H250   1.082   1_556  S
C248        C249   1.387       .  A
C248        C754   1.480       .  S
C249        H251   1.081       .  S
Cu252       N255   2.076       .  S
Cu253       N263   2.077       .  S
Cu254       N256   2.088       .  S
Cu254       N262   2.088       .  S
N255        N256   1.323       .  A
N255        C259   1.347       .  A
N256        C257   1.344       .  A
C257        C258   1.385       .  A
C257        H260   1.082       .  S
C258        C259   1.383       .  A
C258        C438   1.473       .  S
C259        H261   1.082       .  S
N262        N263   1.322       .  A
N262        C266   1.350       .  A
N263        C264   1.343       .  A
C264        C265   1.381       .  A
C264        H267   1.082       .  S
C265        C266   1.390       .  A
C265        C540   1.482       .  S
C266        H268   1.082       .  S
N269        N270   1.319       .  A
N269        C273   1.344       .  A
N269       Cu277   2.070       .  S
N270        C271   1.348       .  A
N270       Cu276   2.074       .  S
C271        C272   1.389       .  A
C271        H274   1.081       .  S
C272        C273   1.383       .  A
C272        C666   1.481       .  S
C273        H275   1.082       .  S
Cu276       N279   2.075       .  S
Cu277       N287   2.070       .  S
Cu278       N280   2.117       .  S
Cu278       N286   2.117       .  S
N279        N280   1.328       .  A
N279        C283   1.343       .  A
N280        C281   1.356       .  A
C281        C282   1.387       .  A
C281        H284   1.081       .  S
C282        C283   1.374       .  A
C282        N365   1.438       .  S
C283        H285   1.082       .  S
N286        N287   1.323       .  A
N286        C290   1.354       .  A
N287        C288   1.343       .  A
C288        C289   1.384       .  A
C288        H291   1.081       .  S
C289        C290   1.393       .  A
C289        C522   1.493       .  S
C290        H292   1.082       .  S
N293        N294   1.319       .  A
N293        C297   1.347       .  A
N293       Cu301   2.077       .  S
N294        C295   1.345       .  A
N294       Cu300   2.067       .  S
C295        C296   1.383       .  A
C295        H298   1.082   1_554  S
C296        C297   1.389       .  A
C296        C646   1.481       .  S
C297        H299   1.081       .  S
Cu300       N303   2.068       .  S
Cu301       N311   2.078       .  S
Cu302       N304   2.113       .  S
Cu302       N310   2.113       .  S
N303        N304   1.326       .  A
N303        C307   1.342       .  A
N304        C305   1.355       .  A
C305        C306   1.387       .  A
C305        H308   1.082       .  S
C306        C307   1.374       .  A
C306        N434   1.437   1_554  S
C307        H309   1.082   1_554  S
N310        N311   1.325       .  A
N310        C314   1.355       .  A
N311        C312   1.343       .  A
C312        C313   1.379       .  A
C312        H315   1.082       .  S
C313        C314   1.392       .  A
C313        C520   1.483       .  S
C314        H316   1.082       .  S
N317        N318   1.322       .  A
N317        C321   1.346       .  A
N317       Cu325   2.080       .  S
N318        C319   1.346       .  A
N318       Cu324   2.078       .  S
C319        C320   1.384       .  A
C319        H322   1.082       .  S
C320        C321   1.388       .  A
C320        C700   1.482       .  S
C321        H323   1.081       .  S
Cu324       N327   2.078       .  S
Cu325       N335   2.081       .  S
Cu326       N328   2.098       .  S
Cu326       N334   2.097       .  S
N327        N328   1.322       .  A
N327        C331   1.346       .  A
N328        C329   1.347       .  A
C329        C330   1.390       .  A
C329        H332   1.082       .  S
C330        C331   1.385       .  A
C330        C376   1.474       .  S
C331        H333   1.082       .  S
N334        N335   1.323       .  A
N334        C338   1.351       .  A
N335        C336   1.345       .  A
C336        C337   1.383       .  A
C336        H339   1.082       .  S
C337        C338   1.390       .  A
C337        C502   1.484       .  S
C338        H340   1.082       .  S
N341        N342   1.322       .  A
N341        C345   1.346       .  A
N341       Cu349   2.079       .  S
N342        C343   1.344       .  A
N342       Cu348   2.071       .  S
C343        C344   1.382       .  A
C343        H346   1.082       .  S
C344        C345   1.388       .  A
C344        C718   1.480       .  S
C345        H347   1.081       .  S
Cu348       N351   2.070       .  S
Cu349       N359   2.080       .  S
Cu350       N352   2.099       .  S
Cu350       N358   2.099       .  S
N351        N352   1.323       .  A
N351        C355   1.346       .  A
N352        C353   1.347       .  A
C353        C354   1.388       .  A
C353        H356   1.082       .  S
C354        C355   1.381       .  A
C354        C431   1.474       .  S
C355        H357   1.082       .  S
N358        N359   1.323       .  A
N358        C362   1.349       .  A
N359        C360   1.347       .  A
C360        C361   1.388       .  A
C360        H363   1.081       .  S
C361        C362   1.388       .  A
C361        C504   1.489       .  S
C362        H364   1.082       .  S
N365        C369   1.361       .  A
N365        C366   1.362       .  A
C366        C367   1.385       .  A
C366        C486   1.490       .  S
C367        C368   1.370       .  A
C367        H370   1.082       .  S
C368        C369   1.380       .  A
C368        H371   1.082       .  S
N372        C376   1.359       .  A
N372        C373   1.362       .  A
N372        C392   1.440       .  S
C373        C374   1.387       .  A
C373        C484   1.490       .  S
C374        C375   1.370       .  A
C374        H377   1.082       .  S
C375        C376   1.378       .  A
C375        H378   1.082       .  S
N379        N380   1.321       .  A
N379        C383   1.340       .  A
N379       Cu387   2.057       .  S
N380        C381   1.351       .  A
N380       Cu386   2.091       .  S
C381        C382   1.391       .  A
C381        H384   1.081       .  S
C382        C383   1.377       .  A
C382        C574   1.477       .  S
C383        H385   1.082       .  S
Cu386       N389   2.093       .  S
Cu387       N397   2.057       .  S
Cu388       N390   2.109       .  S
Cu388       N396   2.107       .  S
N389        N390   1.328       .  A
N389        C393   1.349       .  A
N390        C391   1.350       .  A
C391        C392   1.384       .  A
C391        H394   1.082       .  S
C392        C393   1.382       .  A
C393        H395   1.082       .  S
N396        N397   1.321       .  A
N396        C400   1.353       .  A
N397        C398   1.342       .  A
C398        C399   1.383       .  A
C398        H401   1.082       .  S
C399        C400   1.392       .  A
C399        C466   1.487       .  S
C400        H402   1.082       .  S
N403        N404   1.322   1_554  A
N403        C407   1.348       .  A
N403       Cu411   2.080       .  S
N404        C405   1.343       .  A
N404       Cu410   2.069       .  S
C405        C406   1.381       .  A
C405        H408   1.082       .  S
C406        C407   1.388   1_556  A
C406        C592   1.478       .  S
C407        H409   1.081       .  S
Cu410       N413   2.069       .  S
Cu411       N421   2.081       .  S
Cu412       N414   2.094       .  S
Cu412       N420   2.095       .  S
N413        N414   1.325   1_556  A
N413        C417   1.346       .  A
N414        C415   1.349       .  A
C415        C416   1.383   1_554  A
C415        H418   1.082       .  S
C416        C417   1.378       .  A
C416        N427   1.436       .  S
C417        H419   1.082       .  S
N420        N421   1.324       .  A
N420        C424   1.348       .  A
N421        C422   1.347       .  A
C422        C423   1.386       .  A
C422        H425   1.082       .  S
C423        C424   1.386       .  A
C423        C468   1.485       .  S
C424        H426   1.082       .  S
N427        C431   1.356       .  A
N427        C428   1.356       .  A
C428        C429   1.387       .  A
C428        C448   1.485       .  S
C429        C430   1.377       .  A
C429        H432   1.082       .  S
C430        C431   1.380       .  A
C430        H433   1.082       .  S
N434        C438   1.358       .  A
N434        C435   1.358       .  A
C435        C436   1.385       .  A
C435        C450   1.480   1_556  S
C436        C437   1.370       .  A
C436        H439   1.083       .  S
C437        C438   1.380       .  A
C437        H440   1.082       .  S
C441        C442   1.405   1_554  A
C441        C446   1.407       .  A
C441        C449   1.488   1_554  S
C442        C443   1.400   1_455  A
C442        H451   1.084       .  S
C443        C444   1.407   1_556  A
C443        H452   1.082       .  S
C444        C445   1.405   1_655  A
C444        C447   1.489   1_554  S
C445        C446   1.400       .  A
C445        H453   1.083       .  S
C446        H454   1.082       .  S
C447        H455   1.088       .  S
C447        C448   1.347       .  D
C448        H456   1.085       .  S
C449        H457   1.089       .  S
C449        C450   1.348   1_556  D
C450        H458   1.085       .  S
C459        C460   1.406       .  A
C459        C464   1.406       .  A
C459        C467   1.492       .  S
C460        C461   1.403       .  A
C460        H469   1.083       .  S
C461        C462   1.407       .  A
C461        H470   1.082       .  S
C462        C463   1.406       .  A
C462        C465   1.491       .  S
C463        C464   1.401       .  A
C463        H471   1.083       .  S
C464        H472   1.082       .  S
C465        H473   1.086       .  S
C465        C466   1.351       .  D
C466        H474   1.085       .  S
C467        H475   1.086       .  S
C467        C468   1.349       .  D
C468        H476   1.085       .  S
C477        C478   1.407       .  A
C477        C482   1.405       .  A
C477        C485   1.493       .  S
C478        C479   1.404       .  A
C478        H487   1.083       .  S
C479        C480   1.407       .  A
C479        H488   1.081       .  S
C480        C481   1.408       .  A
C480        C483   1.495       .  S
C481        C482   1.402       .  A
C481        H489   1.083       .  S
C482        H490   1.082       .  S
C483        H491   1.088       .  S
C483        C484   1.353       .  D
C484        H492   1.085       .  S
C485        H493   1.087       .  S
C485        C486   1.353       .  D
C486        H494   1.085       .  S
C495        C496   1.406       .  A
C495        C500   1.410       .  A
C495        C503   1.497       .  S
C496        C497   1.400       .  A
C496        H505   1.083       .  S
C497        C498   1.406       .  A
C497        H506   1.082       .  S
C498        C499   1.405       .  A
C498        C501   1.493       .  S
C499        C500   1.405       .  A
C499        H507   1.083       .  S
C500        H508   1.081       .  S
C501        H509   1.086       .  S
C501        C502   1.348       .  D
C502        H510   1.086       .  S
C503        H511   1.085       .  S
C503        C504   1.351       .  D
C504        H512   1.084       .  S
C513        C514   1.406       .  A
C513        C518   1.410       .  A
C513        C521   1.497       .  S
C514        C515   1.399       .  A
C514        H523   1.083       .  S
C515        C516   1.405       .  A
C515        H524   1.083       .  S
C516        C517   1.407       .  A
C516        C519   1.496       .  S
C517        C518   1.408       .  A
C517        H525   1.083       .  S
C518        H526   1.081       .  S
C519        H527   1.086       .  S
C519        C520   1.348       .  D
C520        H528   1.086       .  S
C521        H529   1.085       .  S
C521        C522   1.353       .  D
C522        H530   1.084       .  S
C531        C532   1.404       .  A
C531        C536   1.408       .  A
C531        C539   1.492       .  S
C532        C533   1.402       .  A
C532        H541   1.083       .  S
C533        C534   1.407       .  A
C533        H542   1.082       .  S
C534        C535   1.403       .  A
C534        C537   1.490       .  S
C535        C536   1.401       .  A
C535        H543   1.083       .  S
C536        H544   1.082       .  S
C537        H545   1.086       .  S
C537        C538   1.346       .  D
C538        H546   1.086       .  S
C539        H547   1.086       .  S
C539        C540   1.346       .  D
C540        H548   1.085       .  S
C549        C550   1.405       .  A
C549        C554   1.408       .  A
C549        C557   1.490       .  S
C550        C551   1.398       .  A
C550        H559   1.080       .  S
C551        C552   1.407       .  A
C551        H560   1.083       .  S
C552        C553   1.405       .  A
C552        C555   1.489       .  S
C553        C554   1.400       .  A
C553        H561   1.080       .  S
C554        H562   1.083       .  S
C555        H563   1.084       .  S
C555        C556   1.352       .  D
C556        H564   1.083       .  S
C557        H565   1.084       .  S
C557        C558   1.353       .  D
C558        H566   1.081       .  S
C567        C568   1.402       .  A
C567        C572   1.411       .  A
C567        C575   1.492       .  S
C568        C569   1.398       .  A
C568        H577   1.083       .  S
C569        C570   1.410       .  A
C569        H578   1.081       .  S
C570        C571   1.402       .  A
C570        C573   1.491       .  S
C571        C572   1.400       .  A
C571        H579   1.083       .  S
C572        H580   1.080       .  S
C573        H581   1.086       .  S
C573        C574   1.344       .  D
C574        H582   1.084       .  S
C575        H583   1.086       .  S
C575        C576   1.344       .  D
C576        H584   1.083       .  S
C585        C586   1.402       .  A
C585        C590   1.407       .  A
C585        C593   1.487       .  S
C586        C587   1.395       .  A
C586        H595   1.084       .  S
C587        C588   1.409       .  A
C587        H596   1.079       .  S
C588        C589   1.406       .  A
C588        C591   1.493       .  S
C589        C590   1.401       .  A
C589        H597   1.084   1_556  S
C590        H598   1.081       .  S
C591        H599   1.086   1_556  S
C591        C592   1.347       .  D
C592        H600   1.082       .  S
C593        H601   1.085       .  S
C593        C594   1.346       .  D
C594        H602   1.084       .  S
C603        C604   1.404       .  A
C603        C608   1.409       .  A
C603        C611   1.492       .  S
C604        C605   1.397       .  A
C604        H613   1.083       .  S
C605        C606   1.406       .  A
C605        H614   1.082       .  S
C606        C607   1.406       .  A
C606        C609   1.492       .  S
C607        C608   1.406       .  A
C607        H615   1.083       .  S
C608        H616   1.081       .  S
C609        H617   1.086       .  S
C609        C610   1.347       .  D
C610        H618   1.086       .  S
C611        H619   1.085       .  S
C611        C612   1.350       .  D
C612        H620   1.084       .  S
C621        C622   1.405       .  A
C621        C626   1.409       .  A
C621        C629   1.493   1_455  S
C622        C623   1.400       .  A
C622        H631   1.080   1_455  S
C623        C624   1.407       .  A
C623        H632   1.083       .  S
C624        C625   1.405       .  A
C624        C627   1.492       .  S
C625        C626   1.402       .  A
C625        H633   1.081       .  S
C626        H634   1.083       .  S
C627        H635   1.083       .  S
C627        C628   1.355       .  D
C628        H636   1.084       .  S
C629        H637   1.085       .  S
C629        C630   1.355       .  D
C630        H638   1.083       .  S
C639        C640   1.405       .  A
C639        C644   1.411   1_556  A
C639        C647   1.496       .  S
C640        C641   1.400       .  A
C640        H649   1.083       .  S
C641        C642   1.408   1_556  A
C641        H650   1.081       .  S
C642        C643   1.403       .  A
C642        C645   1.492       .  S
C643        C644   1.399       .  A
C643        H651   1.084       .  S
C644        H652   1.079       .  S
C645        H653   1.086       .  S
C645        C646   1.347       .  D
C646        H654   1.084   1_554  S
C647        H655   1.086       .  S
C647        C648   1.348       .  D
C648        H656   1.082   1_556  S
C657        C658   1.404       .  A
C657        C662   1.409       .  A
C657        C665   1.494       .  S
C658        C659   1.401       .  A
C658        H667   1.084       .  S
C659        C660   1.410       .  A
C659        H668   1.079       .  S
C660        C661   1.404       .  A
C660        C663   1.495       .  S
C661        C662   1.399       .  A
C661        H669   1.083       .  S
C662        H670   1.080       .  S
C663        H671   1.086       .  S
C663        C664   1.347       .  D
C664        H672   1.083       .  S
C665        H673   1.086       .  S
C665        C666   1.348       .  D
C666        H674   1.083       .  S
C675        C676   1.406       .  A
C675        C680   1.406       .  A
C675        C683   1.495       .  S
C676        C677   1.408       .  A
C676        H685   1.083       .  S
C677        C678   1.411       .  A
C677        H686   1.080       .  S
C678        C679   1.405       .  A
C678        C681   1.496       .  S
C679        C680   1.396       .  A
C679        H687   1.084       .  S
C680        H688   1.082       .  S
C681        H689   1.084       .  S
C681        C682   1.351       .  D
C682        H690   1.083       .  S
C683        H691   1.086       .  S
C683        C684   1.348       .  D
C684        H692   1.086       .  S
C693        C694   1.405       .  A
C693        C698   1.408       .  A
C693        C701   1.490       .  S
C694        C695   1.401       .  A
C694        H703   1.084       .  S
C695        C696   1.408       .  A
C695        H704   1.081       .  S
C696        C697   1.403       .  A
C696        C699   1.489       .  S
C697        C698   1.398       .  A
C697        H705   1.084       .  S
C698        H706   1.081       .  S
C699        H707   1.086       .  S
C699        C700   1.347       .  D
C700        H708   1.085       .  S
C701        H709   1.086       .  S
C701        C702   1.347       .  D
C702        H710   1.085       .  S
C711        C712   1.404       .  A
C711        C716   1.409       .  A
C711        C719   1.491       .  S
C712        C713   1.400       .  A
C712        H721   1.084       .  S
C713        C714   1.408       .  A
C713        H722   1.081       .  S
C714        C715   1.402       .  A
C714        C717   1.487       .  S
C715        C716   1.398       .  A
C715        H723   1.084       .  S
C716        H724   1.080       .  S
C717        H725   1.086       .  S
C717        C718   1.346       .  D
C718        H726   1.085       .  S
C719        H727   1.086       .  S
C719        C720   1.346       .  D
C720        H728   1.084       .  S
C729        C730   1.406       .  A
C729        C734   1.407       .  A
C729        C737   1.491       .  S
C730        C731   1.403       .  A
C730        H739   1.083       .  S
C731        C732   1.406       .  A
C731        H740   1.083       .  S
C732        C733   1.405       .  A
C732        C735   1.490       .  S
C733        C734   1.402       .  A
C733        H741   1.083       .  S
C734        H742   1.083       .  S
C735        H743   1.086       .  S
C735        C736   1.349       .  D
C736        H744   1.086       .  S
C737        H745   1.086       .  S
C737        C738   1.348       .  D
C738        H746   1.086       .  S
C747        C748   1.404       .  A
C747        C752   1.409   1_554  A
C747        C755   1.491       .  S
C748        C749   1.400       .  A
C748        H757   1.083       .  S
C749        C750   1.408   1_554  A
C749        H758   1.081       .  S
C750        C751   1.403       .  A
C750        C753   1.488       .  S
C751        C752   1.399       .  A
C751        H759   1.083       .  S
C752        H760   1.081       .  S
C753        H761   1.086       .  S
C753        C754   1.346       .  D
C754        H762   1.085   1_556  S
C755        H763   1.086       .  S
C755        C756   1.346       .  D
C756        H764   1.084   1_554  S
C765        C766   1.406       .  A
C765        C770   1.411       .  A
C765        C773   1.498       .  S
C766        C767   1.401       .  A
C766        H775   1.083       .  S
C767        C768   1.408       .  A
C767        H776   1.081       .  S
C768        C769   1.402       .  A
C768        C771   1.492       .  S
C769        C770   1.400       .  A
C769        H777   1.083       .  S
C770        H778   1.079       .  S
C771        H779   1.086       .  S
C771        C772   1.346       .  D
C772        H780   1.084       .  S
C773        H781   1.086       .  S
C773        C774   1.348       .  D
C774        H782   1.081       .  S
C783        C784   1.405       .  A
C783        C788   1.407       .  A
C783        C791   1.490       .  S
C784        C785   1.402       .  A
C784        H793   1.083       .  S
C785        C786   1.406       .  A
C785        H794   1.083       .  S
C786        C787   1.403       .  A
C786        C789   1.485       .  S
C787        C788   1.398       .  A
C787        H795   1.083       .  S
C788        H796   1.082       .  S
C789        H797   1.087       .  S
C789        C790   1.347       .  D
C790        H798   1.086       .  S
C791        H799   1.086       .  S
C791        C792   1.346       .  D
C792        H800   1.085       .  S
