geometry optimzed in LAMMPS
_audit_creation_date              2020-11-30 
_audit_creation_method            'lammps2cif' 
_symmetry_space_group_name_H-M    'P1' 
_symmetry_Int_Tables_number       1 
_symmetry_cell_setting            triclinic 
loop_ 
_symmetry_equiv_pos_as_xyz 
  x,y,z 
_cell_length_a                    23.116542904566963 
_cell_length_b                    23.435309545480127 
_cell_length_c                    28.34858152137475 
_cell_angle_alpha                 89.75931386805863 
_cell_angle_beta                  91.10238102490902 
_cell_angle_gamma                 89.91189860321396 
loop_ 
_atom_site_label 
_atom_site_type_symbol 
_atom_site_fract_x 
_atom_site_fract_y 
_atom_site_fract_z 
_atom_site_charge 
C1          C  0.01551770  0.24330329  0.52275509     0.00030
C2          C  0.50876091  0.23564131  0.47566977     0.00030
C3          C  0.25196859  0.99916222  0.47402383     0.00030
C4          C  0.24475958  0.50247497  0.52119183     0.00030
C5          C  0.11966019  0.33958225  0.67852951     0.41930
N6          N  0.13882687  0.29970089  0.74555469     0.00820
C7          C  0.38527406  0.33163894  0.88680400    -0.07060
H8          H  0.41029646  0.33158853  0.69243229     0.06310
C9          C  0.34710333  0.13414576  0.70238149    -0.07410
Co10       Co  0.23897725  0.35174765  0.80109929     0.74180
N11         N  0.34667270  0.33078556  0.74819320    -0.26590
Co12       Co  0.35741786  0.26292955  0.79935742     0.74070
C13         C  0.39442935  0.16887403  0.68299113     0.42030
N14         N  0.20389545  0.14147482  0.74093633     0.00430
N15         N  0.36606138  0.20491111  0.74754659     0.00540
N16         N  0.30987857  0.39349706  0.88967669    -0.47440
H17         H  0.19061805  0.40416270  0.69093405     0.06300
N18         N  0.30239682  0.36474009  0.75472004     0.00820
N19         N  0.36395017  0.19526742  0.84941005     0.00560
C20         C  0.38787076  0.13695579  0.90511581     0.42170
N21         N  0.15864163  0.17585221  0.73877878    -0.26050
C22         C  0.16644769  0.37604749  0.88377930    -0.06970
N23         N  0.10573708  0.29627055  0.70714287    -0.47150
N24         N  0.40193602  0.18763489  0.88485770    -0.47370
C25         C  0.11680793  0.35313288  0.90657628     0.41940
N26         N  0.30314729  0.35612911  0.85473463     0.00810
N27         N  0.15546144  0.17176657  0.84293023    -0.26070
N28         N  0.17549680  0.34264317  0.74515433    -0.26560
N29         N  0.19947918  0.13580035  0.84430102     0.00450
H30         H  0.07815746  0.18098529  0.88298055     0.06340
H31         H  0.31710942  0.07335250  0.88372712     0.06380
N32         N  0.34737305  0.32074743  0.85235799    -0.26610
N33         N  0.33186088  0.16021656  0.74274823    -0.26220
N34         N  0.13894770  0.29803853  0.84900788     0.00820
C35         C  0.33898411  0.40211218  0.69240296     0.42210
C36         C  0.13224117  0.16741552  0.69618776    -0.07470
N37         N  0.32747755  0.15213246  0.84583052    -0.26220
H38         H  0.32658473  0.09711374  0.68726251     0.06360
N39         N  0.29830690  0.40684854  0.72477478    -0.47440
H40         H  0.09542716  0.19084276  0.68215888     0.06350
C41         C  0.14351319  0.11013260  0.90037716     0.42050
C42         C  0.16634793  0.36975538  0.70360420    -0.06970
Co43       Co  0.14618137  0.23595164  0.79432668     0.73820
N44         N  0.21019884  0.11040239  0.70280884    -0.47160
C45         C  0.36074039  0.37935573  0.91145877     0.42310
N46         N  0.10064550  0.30454426  0.88335529    -0.47150
Co47       Co  0.26579054  0.14571194  0.79351363     0.73890
C48         C  0.33913868  0.11365162  0.87923307    -0.07480
C49         C  0.37279524  0.35054108  0.70840122    -0.07040
N50         N  0.17672042  0.34005658  0.84916349    -0.26570
N51         N  0.40319069  0.21141933  0.71340711    -0.47330
H52         H  0.42667171  0.31070074  0.89201777     0.06320
C53         C  0.11841370  0.15898247  0.87658022    -0.07450
Cl54       Cl  0.25217095  0.24900496  0.79707270    -0.50450
C55         C  0.16701315  0.12355851  0.67252102     0.42080
H56         H  0.18990642  0.41513228  0.89070971     0.06290
N57         N  0.19391576  0.09717482  0.87869561    -0.47170
C58         C  0.12680559  0.15898791  0.31825287     0.41930
N59         N  0.14827119  0.19854978  0.25231580     0.00820
C60         C  0.39681756  0.15365564  0.12221443    -0.07060
H61         H  0.41603746  0.18486566  0.31424573     0.06310
C62         C  0.34747422  0.36673899  0.29795542    -0.07410
Co63       Co  0.24698720  0.14362193  0.20190773     0.74180
N64         N  0.35393010  0.17186260  0.25671912    -0.26590
Co65       Co  0.36559290  0.23464430  0.20346484     0.74070
C66         C  0.39587682  0.33514099  0.32025796     0.42030
N67         N  0.21060006  0.35855710  0.25108435     0.00430
N68         N  0.37282145  0.29659375  0.25410781     0.00540
N69         N  0.31899887  0.09501121  0.11937791    -0.47440
H70         H  0.19706681  0.09028535  0.30954067     0.06300
N71         N  0.31016099  0.13615038  0.25268706     0.00820
N72         N  0.37321239  0.29990515  0.15192056     0.00560
C73         C  0.40579982  0.36078171  0.10215652     0.42170
N74         N  0.16593883  0.32387158  0.25340082    -0.26050
C75         C  0.16553632  0.11234047  0.11988648    -0.06970
N76         N  0.11444997  0.20280690  0.28909345    -0.47150
N77         N  0.41515393  0.30814584  0.12112430    -0.47370
C78         C  0.11422063  0.13623522  0.09740347     0.41940
N79         N  0.31218084  0.13629000  0.15087519     0.00810
N80         N  0.16280912  0.32411513  0.15033331    -0.26070
N81         N  0.18384428  0.15452834  0.25483423    -0.26560
N82         N  0.20786665  0.35885498  0.14935594     0.00450
H83         H  0.08057769  0.32306261  0.11324216     0.06340
H84         H  0.33488792  0.42580560  0.11842272     0.06380
N85         N  0.35726119  0.17098317  0.15293049    -0.26610
N86         N  0.33663308  0.33994761  0.25650662    -0.26220
N87         N  0.14639624  0.19556399  0.14929160     0.00820
C88         C  0.34769893  0.11371879  0.31977648     0.42210
C89         C  0.13763861  0.33656554  0.29329875    -0.07470
N90         N  0.33750668  0.34394728  0.15326210    -0.26220
H91         H  0.32384642  0.40269035  0.31162674     0.06360
N92         N  0.30531700  0.10134460  0.28883183    -0.47440
H93         H  0.10008572  0.31464289  0.30645836     0.06350
C94         C  0.14805100  0.39185844  0.09721299     0.42050
C95         C  0.17355508  0.12684417  0.29587084    -0.06970
Co96       Co  0.15452090  0.26057978  0.20092037     0.73820
N97         N  0.21480167  0.39428224  0.28655813    -0.47160
C98         C  0.37166466  0.10338971  0.10023004     0.42310
N99         N  0.10453594  0.18813221  0.11697749    -0.47150
Co100      Co  0.27323749  0.35128306  0.20214240     0.73890
C101        C  0.35450575  0.38417202  0.12312210    -0.07480
C102        C  0.38017988  0.16133544  0.29899654    -0.07040
N103        N  0.18229624  0.15162933  0.15122534    -0.26570
N104        N  0.40821670  0.29241419  0.29088164    -0.47330
H105        H  0.43911018  0.17236454  0.11765011     0.06320
C106        C  0.12302196  0.34157822  0.11865829    -0.07450
Cl107      Cl  0.26007290  0.24754324  0.20144657    -0.50450
C108        C  0.17062687  0.38373749  0.31489615     0.42080
H109        H  0.18538506  0.07096337  0.11519968     0.06290
N110        N  0.20081154  0.40039228  0.11762471    -0.47170
O111        O  0.43511507  0.44399216  0.05930089    -0.80670
O112        O  0.08518932  0.05308151  0.05422117    -0.80690
O113        O  0.06319138  0.42703241  0.05763962    -0.80700
O114        O  0.45427126  0.07125372  0.05746974    -0.80640
O115        O  0.14944694  0.45810605  0.03347192    -0.80760
O116        O  0.36674333  0.03644913  0.03772234    -0.80680
O117        O  0.04588544  0.13772550  0.03392663    -0.80670
O118        O  0.47051993  0.35855539  0.03874874    -0.80710
C119        C  0.43881445  0.38862772  0.06484284     1.09020
C120        C  0.07994209  0.10823698  0.05987359     1.08910
C121        C  0.11954820  0.42726481  0.06075620     1.09040
C122        C  0.39831134  0.06884360  0.06310723     1.08920
O123        O  0.40529042  0.05408399  0.94964304    -0.80670
O124        O  0.10101548  0.43782770  0.94767799    -0.80750
O125        O  0.44661464  0.39908927  0.95191314    -0.80680
O126        O  0.06266904  0.09441094  0.94716702    -0.80660
O127        O  0.13624992  0.03925858  0.96128047    -0.80710
O128        O  0.37357552  0.45242701  0.96912491    -0.80680
O129        O  0.46048529  0.12635163  0.96531825    -0.80640
O130        O  0.04872732  0.36598512  0.96821062    -0.80710
Co131      Co  0.42735024  0.00386436  0.00360481     1.51530
Co132      Co  0.08578285  0.99068687  0.00053772     1.51690
Co133      Co  0.00012023  0.41964940  0.00390940     1.51570
Co134      Co  0.01326245  0.07544856  0.00162664     1.51470
O135        O  0.00512632  0.99713584  0.97428908    -1.42600
C136        C  0.41959774  0.10503157  0.94192529     1.08950
C137        C  0.08670727  0.38635392  0.94245242     1.09040
C138        C  0.39431906  0.41224669  0.94593691     1.08980
C139        C  0.11359627  0.07934594  0.93814054     1.08950
C140        C  0.16913503  0.47926814  0.41989953    -0.26850
C141        C  0.21749661  0.45823327  0.44543166    -0.14920
C142        C  0.24158463  0.40568415  0.43262184     0.35710
C143        C  0.22065758  0.37792664  0.39210736    -0.26300
C144        C  0.17544819  0.40154120  0.36431360    -0.15540
C145        C  0.14981295  0.45299037  0.37844916     0.36790
N146        N  0.11078604  0.98392705  0.34785787    -0.89790
H147        H  0.15032987  0.01987951  0.42874588     0.17910
H148        H  0.24421741  0.34115303  0.37961051     0.17900
N149        N  0.29037155  0.38289979  0.45831026    -0.88810
H150        H  0.07747824  0.95677389  0.33718624     0.35280
H151        H  0.13311338  0.99557077  0.31758861     0.40370
H152        H  0.32466469  0.37894304  0.43506938     0.39990
H153        H  0.27959035  0.34199188  0.47003131     0.34880
C154        C  0.33634091  0.01963653  0.42507123    -0.26850
C155        C  0.28602457  0.04129896  0.44585241    -0.14920
C156        C  0.26416436  0.09467585  0.42916728     0.35710
C157        C  0.29159811  0.12229490  0.39176755    -0.26300
C158        C  0.33931010  0.09825237  0.36944548    -0.15540
C159        C  0.36244454  0.04689675  0.38674927     0.36790
N160        N  0.40795937  0.01913224  0.36176480    -0.89790
H161        H  0.35219947  0.97801190  0.43549515     0.17910
H162        H  0.27184350  0.16035798  0.37673857     0.17900
N163        N  0.21157378  0.12001113  0.44505775    -0.88810
H164        H  0.41872154  0.98065053  0.37835673     0.35280
H165        H  0.44470195  0.04493568  0.36384790     0.40370
H166        H  0.18734324  0.09272103  0.46549812     0.39990
H167        H  0.22260439  0.15551923  0.46550002     0.34880
C168        C  0.35718801  0.42793105  0.60442595    -0.26850
C169        C  0.32319601  0.42714761  0.64489816    -0.14920
C170        C  0.26794624  0.45187553  0.63998537     0.35710
C171        C  0.24033184  0.45072144  0.59648744    -0.26300
C172        C  0.27287996  0.46193629  0.55666812    -0.15540
C173        C  0.33376490  0.45086743  0.56098976     0.36790
N174        N  0.37159604  0.46632793  0.52367256    -0.89790
H175        H  0.40251550  0.41864167  0.60875991     0.17910
H176        H  0.19410287  0.45483910  0.59590317     0.17900
N177        N  0.24360129  0.48501214  0.67734960    -0.88810
H178        H  0.41423294  0.45539641  0.53258885     0.35280
H179        H  0.37088066  0.51083411  0.52116598     0.40370
H180        H  0.27190457  0.51858035  0.68438377     0.39990
H181        H  0.20394054  0.50277349  0.66676874     0.34880
C182        C  0.24155597  0.09682216  0.55812237    -0.26850
C183        C  0.21043564  0.04993921  0.54204838    -0.14920
C184        C  0.15394508  0.04093194  0.55963989     0.35710
C185        C  0.13777002  0.06894462  0.60115314    -0.26300
C186        C  0.17315876  0.11077107  0.62165228    -0.15540
C187        C  0.22375131  0.12723056  0.59755892     0.36790
N188        N  0.26169547  0.17074648  0.61453836    -0.89790
H189        H  0.28384085  0.10542773  0.54375952     0.17910
H190        H  0.09922160  0.55516447  0.61913265     0.17900
N191        N  0.11630452  0.49726790  0.54128807    -0.88810
H192        H  0.30200693  0.15158395  0.61898439     0.35280
H193        H  0.24996938  0.18531186  0.64761200     0.40370
H194        H  0.07845983  0.51721981  0.52893770     0.39990
H195        H  0.13444640  0.47735701  0.51231181     0.34880
C196        C  0.38500997  0.28511947  0.39531865    -0.26850
C197        C  0.41226478  0.32902348  0.37048528    -0.14920
C198        C  0.46641013  0.34906781  0.38710808     0.35710
C199        C  0.49423924  0.32158430  0.42524005    -0.26300
C200        C  0.46988473  0.27355418  0.44683390    -0.15540
C201        C  0.41337120  0.25664945  0.43299174     0.36790
N202        N  0.38685158  0.20759658  0.45388936    -0.89790
H203        H  0.34399520  0.26886654  0.38192084     0.17910
H204        H  0.03735929  0.33523404  0.43571025     0.17900
N205        N  0.49684286  0.39373475  0.36352385    -0.88810
H206        H  0.34699875  0.19975466  0.43749406     0.35280
H207        H  0.37643393  0.21783693  0.48827087     0.40480
H208        H  0.47204992  0.41112656  0.33582986     0.39990
H209        H  0.00354548  0.42639302  0.38803329     0.34880
C210        C  0.06375856  0.13244416  0.38488219    -0.26850
C211        C  0.11162095  0.16261517  0.36863245    -0.14920
C212        C  0.13306324  0.20845196  0.39560836     0.35710
C213        C  0.10306727  0.22762419  0.43516901    -0.26300
C214        C  0.05121996  0.20168211  0.44828512    -0.15540
C215        C  0.03373045  0.15099662  0.42472979     0.36790
N216        N  0.98371456  0.11929607  0.43844087    -0.89790
H217        H  0.04675872  0.09707479  0.36441859     0.17910
H218        H  0.11735349  0.26627762  0.45265703     0.17900
N219        N  0.18245932  0.23913762  0.38007091    -0.88810
H220        H  0.95165794  0.12649985  0.41266715     0.35280
H221        H  0.96777840  0.13374941  0.47041383     0.40370
H222        H  0.16832279  0.28044607  0.37294641     0.39990
H223        H  0.21261687  0.24079709  0.40798843     0.34880
C224        C  0.42360290  0.24108102  0.56706221    -0.26850
C225        C  0.47490437  0.21401979  0.55490622    -0.14920
C226        C  0.49114368  0.16368778  0.57903567     0.35710
C227        C  0.45966534  0.14503225  0.61797813    -0.26300
C228        C  0.41244224  0.17669077  0.63381034    -0.15540
C229        C  0.39344658  0.22496610  0.60706812     0.36790
N230        N  0.34518681  0.26010623  0.61991986    -0.89790
H231        H  0.40797227  0.27708711  0.54667762     0.17910
H232        H  0.47512061  0.10852837  0.63819861     0.17900
N233        N  0.04097363  0.13221086  0.56577768    -0.88810
H234        H  0.35967096  0.30211757  0.62273835     0.35280
H235        H  0.32890626  0.24894650  0.65268886     0.40370
H236        H  0.03588953  0.11961581  0.53069916     0.39990
H237        H  0.07674767  0.15910925  0.56823749     0.34880
C238        C  0.11101410  0.27071004  0.55957425    -0.26850
C239        C  0.05486559  0.28727982  0.54516178    -0.14920
C240        C  0.03129363  0.33651661  0.56668134     0.35710
C241        C  0.05643001  0.35817559  0.60842993    -0.26300
C242        C  0.10783903  0.33534006  0.62694560    -0.15540
C243        C  0.13802360  0.29536897  0.59953454     0.36790
N244        N  0.19474105  0.27689062  0.61342912    -0.89790
H245        H  0.13200961  0.23532565  0.54234662     0.17910
H246        H  0.03372803  0.39070028  0.62791856     0.17900
N247        N  0.48041119  0.36410556  0.54848501    -0.88810
H248        H  0.19296872  0.26129680  0.64790109     0.35280
H249        H  0.22177175  0.31262728  0.61381502     0.40370
H250        H  0.46770330  0.34739523  0.51600451     0.39990
H251        H  0.44782972  0.35541421  0.57215957     0.34880
C252        C  0.01551770  0.74330329  0.52275509     0.00030
C253        C  0.50876091  0.73564131  0.47566977     0.00030
C254        C  0.25196859  0.49916222  0.47402383     0.00030
C255        C  0.24475958  0.00247497  0.52119182     0.00030
C256        C  0.11966018  0.83958225  0.67852951     0.41930
N257        N  0.13882687  0.79970089  0.74555469     0.00820
C258        C  0.38527406  0.83163894  0.88680400    -0.07060
H259        H  0.41029646  0.83158853  0.69243229     0.06310
C260        C  0.34710333  0.63414576  0.70238149    -0.07410
Co261      Co  0.23897725  0.85174765  0.80109928     0.74180
N262        N  0.34667270  0.83078556  0.74819320    -0.26590
Co263      Co  0.35741786  0.76292955  0.79935741     0.74070
C264        C  0.39442935  0.66887403  0.68299113     0.42030
N265        N  0.20389544  0.64147483  0.74093633     0.00430
N266        N  0.36606138  0.70491112  0.74754659     0.00540
N267        N  0.30987857  0.89349706  0.88967669    -0.47440
H268        H  0.19061804  0.90416271  0.69093406     0.06300
N269        N  0.30239681  0.86474009  0.75472004     0.00820
N270        N  0.36395017  0.69526743  0.84941005     0.00560
C271        C  0.38787076  0.63695579  0.90511580     0.42170
N272        N  0.15864163  0.67585221  0.73877878    -0.26050
C273        C  0.16644769  0.87604749  0.88377930    -0.06970
N274        N  0.10573708  0.79627055  0.70714287    -0.47150
N275        N  0.40193602  0.68763489  0.88485770    -0.47370
C276        C  0.11680793  0.85313288  0.90657628     0.41940
N277        N  0.30314729  0.85612911  0.85473463     0.00810
N278        N  0.15546144  0.67176658  0.84293023    -0.26070
N279        N  0.17549680  0.84264317  0.74515433    -0.26560
N280        N  0.19947918  0.63580035  0.84430102     0.00450
H281        H  0.07815746  0.68098529  0.88298056     0.06340
H282        H  0.31710942  0.57335250  0.88372712     0.06380
N283        N  0.34737305  0.82074744  0.85235798    -0.26610
N284        N  0.33186088  0.66021656  0.74274823    -0.26220
N285        N  0.13894770  0.79803854  0.84900788     0.00820
C286        C  0.33898411  0.90211218  0.69240295     0.42210
C287        C  0.13224117  0.66741552  0.69618776    -0.07470
N288        N  0.32747755  0.65213247  0.84583052    -0.26220
H289        H  0.32658473  0.59711374  0.68726251     0.06360
N290        N  0.29830689  0.90684854  0.72477478    -0.47440
H291        H  0.09542716  0.69084276  0.68215888     0.06350
C292        C  0.14351319  0.61013260  0.90037716     0.42050
C293        C  0.16634792  0.86975538  0.70360420    -0.06970
Co294      Co  0.14618137  0.73595165  0.79432668     0.73820
N295        N  0.21019883  0.61040239  0.70280884    -0.47160
C296        C  0.36074039  0.87935574  0.91145877     0.42310
N297        N  0.10064550  0.80454426  0.88335529    -0.47150
Co298      Co  0.26579054  0.64571195  0.79351363     0.73890
C299        C  0.33913867  0.61365162  0.87923306    -0.07480
C300        C  0.37279523  0.85054108  0.70840122    -0.07040
N301        N  0.17672042  0.84005658  0.84916349    -0.26570
N302        N  0.40319069  0.71141933  0.71340711    -0.47330
H303        H  0.42667171  0.81070074  0.89201777     0.06320
C304        C  0.11841370  0.65898247  0.87658022    -0.07450
Cl305      Cl  0.25217095  0.74900496  0.79707270    -0.50450
C306        C  0.16701315  0.62355851  0.67252102     0.42080
H307        H  0.18990643  0.91513228  0.89070971     0.06290
N308        N  0.19391576  0.59717482  0.87869561    -0.47170
C309        C  0.12680558  0.65898791  0.31825287     0.41930
N310        N  0.14827119  0.69854978  0.25231580     0.00820
C311        C  0.39681756  0.65365564  0.12221444    -0.07060
H312        H  0.41603745  0.68486566  0.31424574     0.06310
C313        C  0.34747422  0.86673899  0.29795542    -0.07410
Co314      Co  0.24698720  0.64362193  0.20190773     0.74180
N315        N  0.35393010  0.67186260  0.25671912    -0.26590
Co316      Co  0.36559290  0.73464430  0.20346485     0.74070
C317        C  0.39587682  0.83514099  0.32025796     0.42030
N318        N  0.21060006  0.85855710  0.25108435     0.00430
N319        N  0.37282145  0.79659375  0.25410781     0.00540
N320        N  0.31899887  0.59501121  0.11937791    -0.47440
H321        H  0.19706680  0.59028535  0.30954067     0.06300
N322        N  0.31016098  0.63615038  0.25268706     0.00820
N323        N  0.37321239  0.79990514  0.15192056     0.00560
C324        C  0.40579982  0.86078171  0.10215652     0.42170
N325        N  0.16593883  0.82387158  0.25340082    -0.26050
C326        C  0.16553632  0.61234047  0.11988648    -0.06970
N327        N  0.11444997  0.70280690  0.28909345    -0.47150
N328        N  0.41515392  0.80814584  0.12112430    -0.47370
C329        C  0.11422062  0.63623522  0.09740346     0.41940
N330        N  0.31218084  0.63629000  0.15087519     0.00810
N331        N  0.16280912  0.82411513  0.15033331    -0.26070
N332        N  0.18384428  0.65452834  0.25483423    -0.26560
N333        N  0.20786665  0.85885498  0.14935593     0.00450
H334        H  0.08057769  0.82306261  0.11324216     0.06340
H335        H  0.33488792  0.92580560  0.11842272     0.06380
N336        N  0.35726119  0.67098317  0.15293049    -0.26610
N337        N  0.33663308  0.83994760  0.25650662    -0.26220
N338        N  0.14639624  0.69556399  0.14929160     0.00820
C339        C  0.34769892  0.61371879  0.31977648     0.42210
C340        C  0.13763861  0.83656554  0.29329874    -0.07470
N341        N  0.33750668  0.84394727  0.15326210    -0.26220
H342        H  0.32384642  0.90269035  0.31162674     0.06360
N343        N  0.30531699  0.60134460  0.28883183    -0.47440
H344        H  0.10008571  0.81464289  0.30645836     0.06350
C345        C  0.14805100  0.89185844  0.09721299     0.42050
C346        C  0.17355508  0.62684417  0.29587084    -0.06970
Co347      Co  0.15452090  0.76057978  0.20092037     0.73820
N348        N  0.21480166  0.89428224  0.28655813    -0.47160
C349        C  0.37166466  0.60338971  0.10023004     0.42310
N350        N  0.10453594  0.68813221  0.11697749    -0.47150
Co351      Co  0.27323749  0.85128306  0.20214239     0.73890
C352        C  0.35450575  0.88417202  0.12312210    -0.07480
C353        C  0.38017987  0.66133544  0.29899654    -0.07040
N354        N  0.18229624  0.65162933  0.15122534    -0.26570
N355        N  0.40821670  0.79241419  0.29088164    -0.47330
H356        H  0.43911018  0.67236453  0.11765011     0.06320
C357        C  0.12302196  0.84157822  0.11865829    -0.07450
Cl358      Cl  0.26007289  0.74754324  0.20144657    -0.50450
C359        C  0.17062686  0.88373749  0.31489615     0.42080
H360        H  0.18538506  0.57096337  0.11519968     0.06290
N361        N  0.20081153  0.90039228  0.11762471    -0.47170
O362        O  0.43511507  0.94399216  0.05930089    -0.80670
O363        O  0.08518932  0.55308151  0.05422117    -0.80690
O364        O  0.06319138  0.92703241  0.05763962    -0.80700
O365        O  0.45427126  0.57125373  0.05746974    -0.80640
O366        O  0.14944694  0.95810605  0.03347192    -0.80760
O367        O  0.36674333  0.53644913  0.03772234    -0.80680
O368        O  0.04588544  0.63772550  0.03392662    -0.80670
O369        O  0.47051993  0.85855539  0.03874874    -0.80710
C370        C  0.43881445  0.88862772  0.06484284     1.09020
C371        C  0.07994209  0.60823698  0.05987359     1.08910
C372        C  0.11954819  0.92726481  0.06075620     1.09040
C373        C  0.39831134  0.56884360  0.06310723     1.08920
O374        O  0.40529042  0.55408400  0.94964304    -0.80670
O375        O  0.10101548  0.93782771  0.94767800    -0.80750
O376        O  0.44661464  0.89908927  0.95191314    -0.80680
O377        O  0.06266904  0.59441094  0.94716702    -0.80660
O378        O  0.13624992  0.53925858  0.96128047    -0.80710
O379        O  0.37357552  0.95242701  0.96912491    -0.80680
O380        O  0.46048529  0.62635163  0.96531825    -0.80640
O381        O  0.04872733  0.86598512  0.96821062    -0.80710
Co382      Co  0.42735024  0.50386436  0.00360480     1.51530
Co383      Co  0.08578285  0.49068687  0.00053772     1.51690
Co384      Co  0.00012023  0.91964940  0.00390940     1.51570
Co385      Co  0.01326245  0.57544856  0.00162664     1.51470
O386        O  0.00512632  0.49713584  0.97428908    -1.42600
C387        C  0.41959774  0.60503157  0.94192528     1.08950
C388        C  0.08670727  0.88635392  0.94245242     1.09040
C389        C  0.39431906  0.91224669  0.94593691     1.08980
C390        C  0.11359627  0.57934594  0.93814054     1.08950
C391        C  0.16913503  0.97926815  0.41989952    -0.26850
C392        C  0.21749660  0.95823327  0.44543166    -0.14920
C393        C  0.24158462  0.90568415  0.43262184     0.35710
C394        C  0.22065757  0.87792664  0.39210735    -0.26300
C395        C  0.17544818  0.90154121  0.36431360    -0.15540
C396        C  0.14981295  0.95299037  0.37844915     0.36790
N397        N  0.11078604  0.48392704  0.34785788    -0.89790
H398        H  0.15032986  0.51987950  0.42874589     0.17910
H399        H  0.24421740  0.84115302  0.37961051     0.17900
N400        N  0.29037153  0.88289979  0.45831026    -0.88810
H401        H  0.07747824  0.45677388  0.33718624     0.35280
H402        H  0.13311338  0.49557077  0.31758862     0.40370
H403        H  0.32466468  0.87894303  0.43506938     0.39990
H404        H  0.27959034  0.84199188  0.47003131     0.34880
C405        C  0.33634090  0.51963653  0.42507123    -0.26850
C406        C  0.28602457  0.54129896  0.44585241    -0.14920
C407        C  0.26416436  0.59467584  0.42916728     0.35710
C408        C  0.29159809  0.62229490  0.39176756    -0.26300
C409        C  0.33931009  0.59825237  0.36944548    -0.15540
C410        C  0.36244454  0.54689675  0.38674927     0.36790
N411        N  0.40795937  0.51913225  0.36176481    -0.89790
H412        H  0.35219947  0.47801190  0.43549515     0.17910
H413        H  0.27184348  0.66035798  0.37673857     0.17900
N414        N  0.21157377  0.62001112  0.44505775    -0.88810
H415        H  0.41872154  0.48065054  0.37835673     0.35280
H416        H  0.44470195  0.54493569  0.36384791     0.40370
H417        H  0.18734323  0.59272103  0.46549812     0.39990
H418        H  0.22260437  0.65551923  0.46550002     0.34880
C419        C  0.35718801  0.92793105  0.60442595    -0.26850
C420        C  0.32319601  0.92714760  0.64489815    -0.14920
C421        C  0.26794624  0.95187552  0.63998536     0.35710
C422        C  0.24033184  0.95072143  0.59648742    -0.26300
C423        C  0.27287996  0.96193629  0.55666812    -0.15540
C424        C  0.33376491  0.95086743  0.56098975     0.36790
N425        N  0.37159604  0.96632793  0.52367256    -0.89790
H426        H  0.40251550  0.91864167  0.60875991     0.17910
H427        H  0.19410287  0.95483909  0.59590316     0.17900
N428        N  0.24360129  0.98501213  0.67734958    -0.88810
H429        H  0.41423295  0.95539642  0.53258885     0.35280
H430        H  0.37088066  0.01083412  0.52116598     0.40370
H431        H  0.27190456  0.01858035  0.68438375     0.39990
H432        H  0.20394053  0.00277349  0.66676872     0.34880
C433        C  0.24155597  0.59682216  0.55812237    -0.26850
C434        C  0.21043563  0.54993921  0.54204839    -0.14920
C435        C  0.15394508  0.54093193  0.55963989     0.35710
C436        C  0.13777001  0.56894462  0.60115314    -0.26300
C437        C  0.17315876  0.61077107  0.62165228    -0.15540
C438        C  0.22375131  0.62723056  0.59755892     0.36790
N439        N  0.26169546  0.67074648  0.61453836    -0.89790
H440        H  0.28384084  0.60542773  0.54375952     0.17910
H441        H  0.09922161  0.05516447  0.61913265     0.17900
N442        N  0.11630453  0.99726790  0.54128807    -0.88810
H443        H  0.30200692  0.65158395  0.61898439     0.35280
H444        H  0.24996937  0.68531187  0.64761200     0.40370
H445        H  0.07845984  0.01721982  0.52893770     0.39990
H446        H  0.13444640  0.97735701  0.51231180     0.34880
C447        C  0.38500997  0.78511948  0.39531865    -0.26850
C448        C  0.41226478  0.82902348  0.37048528    -0.14920
C449        C  0.46641013  0.84906781  0.38710808     0.35710
C450        C  0.49423924  0.82158430  0.42524005    -0.26300
C451        C  0.46988473  0.77355418  0.44683390    -0.15540
C452        C  0.41337120  0.75664945  0.43299174     0.36790
N453        N  0.38685158  0.70759658  0.45388936    -0.89790
H454        H  0.34399520  0.76886654  0.38192084     0.17910
H455        H  0.03735929  0.83523404  0.43571025     0.17900
N456        N  0.49684286  0.89373475  0.36352385    -0.88810
H457        H  0.34699875  0.69975466  0.43749405     0.35280
H458        H  0.37643392  0.71783693  0.48827086     0.40480
H459        H  0.47204993  0.91112655  0.33582986     0.39990
H460        H  0.00354549  0.92639302  0.38803329     0.34880
C461        C  0.06375855  0.63244416  0.38488219    -0.26850
C462        C  0.11162095  0.66261517  0.36863244    -0.14920
C463        C  0.13306323  0.70845196  0.39560836     0.35710
C464        C  0.10306727  0.72762419  0.43516901    -0.26300
C465        C  0.05121996  0.70168211  0.44828512    -0.15540
C466        C  0.03373045  0.65099662  0.42472979     0.36790
N467        N  0.98371456  0.61929607  0.43844088    -0.89790
H468        H  0.04675871  0.59707479  0.36441859     0.17910
H469        H  0.11735348  0.76627762  0.45265703     0.17900
N470        N  0.18245932  0.73913762  0.38007090    -0.88810
H471        H  0.95165794  0.62649985  0.41266715     0.35280
H472        H  0.96777840  0.63374941  0.47041383     0.40370
H473        H  0.16832279  0.78044607  0.37294641     0.39990
H474        H  0.21261686  0.74079709  0.40798843     0.34880
C475        C  0.42360289  0.74108101  0.56706220    -0.26850
C476        C  0.47490437  0.71401978  0.55490622    -0.14920
C477        C  0.49114367  0.66368778  0.57903567     0.35710
C478        C  0.45966533  0.64503225  0.61797813    -0.26300
C479        C  0.41244224  0.67669077  0.63381034    -0.15540
C480        C  0.39344658  0.72496610  0.60706812     0.36790
N481        N  0.34518681  0.76010623  0.61991986    -0.89790
H482        H  0.40797226  0.77708710  0.54667761     0.17910
H483        H  0.47512061  0.60852837  0.63819860     0.17900
N484        N  0.04097363  0.63221086  0.56577768    -0.88810
H485        H  0.35967096  0.80211757  0.62273834     0.35280
H486        H  0.32890625  0.74894650  0.65268886     0.40370
H487        H  0.03588953  0.61961581  0.53069916     0.39990
H488        H  0.07674767  0.65910925  0.56823749     0.34880
C489        C  0.11101409  0.77071004  0.55957425    -0.26850
C490        C  0.05486558  0.78727982  0.54516178    -0.14920
C491        C  0.03129363  0.83651661  0.56668134     0.35710
C492        C  0.05643000  0.85817559  0.60842993    -0.26300
C493        C  0.10783902  0.83534006  0.62694560    -0.15540
C494        C  0.13802359  0.79536898  0.59953454     0.36790
N495        N  0.19474105  0.77689063  0.61342912    -0.89790
H496        H  0.13200961  0.73532565  0.54234662     0.17910
H497        H  0.03372802  0.89070028  0.62791856     0.17900
N498        N  0.48041118  0.86410556  0.54848501    -0.88810
H499        H  0.19296872  0.76129681  0.64790109     0.35280
H500        H  0.22177174  0.81262729  0.61381502     0.40370
H501        H  0.46770330  0.84739523  0.51600451     0.39990
H502        H  0.44782971  0.85541420  0.57215957     0.34880
C503        C  0.51551770  0.24330329  0.52275509     0.00030
C504        C  0.00876091  0.23564130  0.47566977     0.00030
C505        C  0.75196859  0.99916222  0.47402383     0.00030
C506        C  0.74475957  0.50247497  0.52119183     0.00030
C507        C  0.61966019  0.33958225  0.67852951     0.41930
N508        N  0.63882687  0.29970089  0.74555469     0.00820
C509        C  0.88527406  0.33163894  0.88680400    -0.07060
H510        H  0.91029646  0.33158853  0.69243229     0.06310
C511        C  0.84710333  0.13414576  0.70238149    -0.07410
Co512      Co  0.73897726  0.35174765  0.80109929     0.74180
N513        N  0.84667270  0.33078556  0.74819320    -0.26590
Co514      Co  0.85741787  0.26292954  0.79935742     0.74070
C515        C  0.89442935  0.16887403  0.68299113     0.42030
N516        N  0.70389545  0.14147483  0.74093633     0.00430
N517        N  0.86606139  0.20491111  0.74754659     0.00540
N518        N  0.80987857  0.39349706  0.88967669    -0.47440
H519        H  0.69061805  0.40416270  0.69093405     0.06300
N520        N  0.80239682  0.36474009  0.75472004     0.00820
N521        N  0.86395017  0.19526742  0.84941005     0.00560
C522        C  0.88787076  0.13695579  0.90511581     0.42170
N523        N  0.65864163  0.17585221  0.73877878    -0.26050
C524        C  0.66644769  0.37604749  0.88377930    -0.06970
N525        N  0.60573708  0.29627055  0.70714287    -0.47150
N526        N  0.90193602  0.18763488  0.88485770    -0.47370
C527        C  0.61680793  0.35313288  0.90657628     0.41940
N528        N  0.80314729  0.35612911  0.85473463     0.00810
N529        N  0.65546144  0.17176657  0.84293023    -0.26070
N530        N  0.67549681  0.34264317  0.74515433    -0.26560
N531        N  0.69947918  0.13580035  0.84430102     0.00450
H532        H  0.57815746  0.18098529  0.88298055     0.06340
H533        H  0.81710942  0.07335250  0.88372712     0.06380
N534        N  0.84737305  0.32074743  0.85235799    -0.26610
N535        N  0.83186088  0.16021656  0.74274823    -0.26220
N536        N  0.63894770  0.29803853  0.84900788     0.00820
C537        C  0.83898411  0.40211218  0.69240296     0.42210
C538        C  0.63224117  0.16741552  0.69618776    -0.07470
N539        N  0.82747755  0.15213246  0.84583052    -0.26220
H540        H  0.82658473  0.09711374  0.68726251     0.06360
N541        N  0.79830690  0.40684854  0.72477479    -0.47440
H542        H  0.59542716  0.19084276  0.68215888     0.06350
C543        C  0.64351319  0.11013260  0.90037716     0.42050
C544        C  0.66634793  0.36975538  0.70360420    -0.06970
Co545      Co  0.64618138  0.23595164  0.79432668     0.73820
N546        N  0.71019884  0.11040239  0.70280884    -0.47160
C547        C  0.86074039  0.37935573  0.91145877     0.42310
N548        N  0.60064550  0.30454426  0.88335529    -0.47150
Co549      Co  0.76579054  0.14571194  0.79351363     0.73890
C550        C  0.83913868  0.11365162  0.87923307    -0.07480
C551        C  0.87279524  0.35054108  0.70840122    -0.07040
N552        N  0.67672042  0.34005658  0.84916349    -0.26570
N553        N  0.90319069  0.21141933  0.71340711    -0.47330
H554        H  0.92667171  0.31070074  0.89201777     0.06320
C555        C  0.61841370  0.15898247  0.87658022    -0.07450
Cl556      Cl  0.75217095  0.24900496  0.79707270    -0.50450
C557        C  0.66701315  0.12355851  0.67252102     0.42080
H558        H  0.68990643  0.41513228  0.89070972     0.06290
N559        N  0.69391576  0.09717482  0.87869561    -0.47170
C560        C  0.62680559  0.15898791  0.31825287     0.41930
N561        N  0.64827119  0.19854978  0.25231580     0.00820
C562        C  0.89681756  0.15365564  0.12221444    -0.07060
H563        H  0.91603745  0.18486566  0.31424574     0.06310
C564        C  0.84747421  0.36673899  0.29795542    -0.07410
Co565      Co  0.74698720  0.14362193  0.20190773     0.74180
N566        N  0.85393010  0.17186260  0.25671912    -0.26590
Co567      Co  0.86559290  0.23464430  0.20346485     0.74070
C568        C  0.89587681  0.33514099  0.32025796     0.42030
N569        N  0.71060006  0.35855710  0.25108435     0.00430
N570        N  0.87282145  0.29659375  0.25410781     0.00540
N571        N  0.81899887  0.09501121  0.11937791    -0.47440
H572        H  0.69706681  0.09028535  0.30954067     0.06300
N573        N  0.81016098  0.13615038  0.25268706     0.00820
N574        N  0.87321239  0.29990515  0.15192056     0.00560
C575        C  0.90579982  0.36078171  0.10215652     0.42170
N576        N  0.66593883  0.32387158  0.25340082    -0.26050
C577        C  0.66553632  0.11234047  0.11988648    -0.06970
N578        N  0.61444997  0.20280690  0.28909345    -0.47150
N579        N  0.91515392  0.30814584  0.12112430    -0.47370
C580        C  0.61422062  0.13623522  0.09740347     0.41940
N581        N  0.81218084  0.13629000  0.15087519     0.00810
N582        N  0.66280912  0.32411513  0.15033331    -0.26070
N583        N  0.68384428  0.15452834  0.25483423    -0.26560
N584        N  0.70786665  0.35885498  0.14935594     0.00450
H585        H  0.58057769  0.32306261  0.11324216     0.06340
H586        H  0.83488792  0.42580560  0.11842272     0.06380
N587        N  0.85726119  0.17098317  0.15293049    -0.26610
N588        N  0.83663307  0.33994760  0.25650662    -0.26220
N589        N  0.64639624  0.19556399  0.14929160     0.00820
C590        C  0.84769893  0.11371879  0.31977648     0.42210
C591        C  0.63763861  0.33656554  0.29329875    -0.07470
N592        N  0.83750668  0.34394728  0.15326211    -0.26220
H593        H  0.82384642  0.40269034  0.31162674     0.06360
N594        N  0.80531699  0.10134460  0.28883183    -0.47440
H595        H  0.60008571  0.31464289  0.30645836     0.06350
C596        C  0.64805100  0.39185844  0.09721299     0.42050
C597        C  0.67355508  0.12684417  0.29587084    -0.06970
Co598      Co  0.65452090  0.26057978  0.20092037     0.73820
N599        N  0.71480166  0.39428224  0.28655813    -0.47160
C600        C  0.87166466  0.10338971  0.10023004     0.42310
N601        N  0.60453594  0.18813221  0.11697749    -0.47150
Co602      Co  0.77323749  0.35128306  0.20214240     0.73890
C603        C  0.85450575  0.38417202  0.12312210    -0.07480
C604        C  0.88017988  0.16133544  0.29899654    -0.07040
N605        N  0.68229624  0.15162933  0.15122534    -0.26570
N606        N  0.90821670  0.29241419  0.29088164    -0.47330
H607        H  0.93911018  0.17236453  0.11765011     0.06320
C608        C  0.62302196  0.34157822  0.11865829    -0.07450
Cl609      Cl  0.76007289  0.24754324  0.20144657    -0.50450
C610        C  0.67062687  0.38373749  0.31489615     0.42080
H611        H  0.68538506  0.07096337  0.11519968     0.06290
N612        N  0.70081153  0.40039228  0.11762471    -0.47170
O613        O  0.93511507  0.44399216  0.05930089    -0.80670
O614        O  0.58518932  0.05308151  0.05422117    -0.80690
O615        O  0.56319138  0.42703241  0.05763962    -0.80700
O616        O  0.95427126  0.07125372  0.05746974    -0.80640
O617        O  0.64944694  0.45810605  0.03347192    -0.80760
O618        O  0.86674333  0.03644913  0.03772234    -0.80680
O619        O  0.54588544  0.13772550  0.03392662    -0.80670
O620        O  0.97051993  0.35855539  0.03874874    -0.80710
C621        C  0.93881445  0.38862772  0.06484284     1.09020
C622        C  0.57994209  0.10823698  0.05987359     1.08910
C623        C  0.61954819  0.42726481  0.06075620     1.09040
C624        C  0.89831134  0.06884360  0.06310723     1.08920
O625        O  0.90529042  0.05408399  0.94964305    -0.80670
O626        O  0.60101548  0.43782771  0.94767799    -0.80750
O627        O  0.94661464  0.39908926  0.95191314    -0.80680
O628        O  0.56266904  0.09441094  0.94716702    -0.80660
O629        O  0.63624992  0.03925859  0.96128047    -0.80710
O630        O  0.87357552  0.45242701  0.96912491    -0.80680
O631        O  0.96048529  0.12635162  0.96531825    -0.80640
O632        O  0.54872732  0.36598512  0.96821062    -0.80710
Co633      Co  0.92735024  0.00386436  0.00360481     1.51530
Co634      Co  0.58578285  0.99068688  0.00053772     1.51690
Co635      Co  0.50012023  0.41964940  0.00390940     1.51570
Co636      Co  0.51326245  0.07544856  0.00162664     1.51470
O637        O  0.50512632  0.99713585  0.97428908    -1.42600
C638        C  0.91959774  0.10503157  0.94192529     1.08950
C639        C  0.58670727  0.38635392  0.94245242     1.09040
C640        C  0.89431907  0.41224669  0.94593691     1.08980
C641        C  0.61359627  0.07934594  0.93814054     1.08950
C642        C  0.66913502  0.47926814  0.41989953    -0.26850
C643        C  0.71749660  0.45823326  0.44543166    -0.14920
C644        C  0.74158462  0.40568414  0.43262184     0.35710
C645        C  0.72065758  0.37792664  0.39210736    -0.26300
C646        C  0.67544818  0.40154120  0.36431360    -0.15540
C647        C  0.64981295  0.45299037  0.37844916     0.36790
N648        N  0.61078604  0.98392705  0.34785787    -0.89790
H649        H  0.65032986  0.01987951  0.42874588     0.17910
H650        H  0.74421741  0.34115303  0.37961051     0.17900
N651        N  0.79037154  0.38289979  0.45831026    -0.88810
H652        H  0.57747824  0.95677389  0.33718624     0.35280
H653        H  0.63311338  0.99557077  0.31758861     0.40370
H654        H  0.82466468  0.37894303  0.43506939     0.39990
H655        H  0.77959035  0.34199188  0.47003131     0.34880
C656        C  0.83634090  0.01963653  0.42507123    -0.26850
C657        C  0.78602457  0.04129896  0.44585241    -0.14920
C658        C  0.76416436  0.09467584  0.42916728     0.35710
C659        C  0.79159810  0.12229490  0.39176756    -0.26300
C660        C  0.83931009  0.09825237  0.36944548    -0.15540
C661        C  0.86244453  0.04689674  0.38674927     0.36790
N662        N  0.90795936  0.01913224  0.36176480    -0.89790
H663        H  0.85219946  0.97801189  0.43549515     0.17910
H664        H  0.77184349  0.16035798  0.37673857     0.17900
N665        N  0.71157378  0.12001112  0.44505775    -0.88810
H666        H  0.91872153  0.98065052  0.37835672     0.35280
H667        H  0.94470195  0.04493567  0.36384790     0.40370
H668        H  0.68734323  0.09272103  0.46549812     0.39990
H669        H  0.72260439  0.15551923  0.46550002     0.34880
C670        C  0.85718800  0.42793104  0.60442595    -0.26850
C671        C  0.82319601  0.42714761  0.64489816    -0.14920
C672        C  0.76794625  0.45187554  0.63998538     0.35710
C673        C  0.74033184  0.45072145  0.59648744    -0.26300
C674        C  0.77287995  0.46193630  0.55666813    -0.15540
C675        C  0.83376490  0.45086743  0.56098976     0.36790
N676        N  0.87159603  0.46632792  0.52367256    -0.89790
H677        H  0.90251549  0.41864166  0.60875991     0.17910
H678        H  0.69410287  0.45483912  0.59590318     0.17900
N679        N  0.74360130  0.48501214  0.67734961    -0.88810
H680        H  0.91423293  0.45539640  0.53258884     0.35280
H681        H  0.87088065  0.51083410  0.52116598     0.40370
H682        H  0.77190457  0.51858035  0.68438378     0.39990
H683        H  0.70394054  0.50277350  0.66676875     0.34880
C684        C  0.74155597  0.09682216  0.55812237    -0.26850
C685        C  0.71043563  0.04993921  0.54204838    -0.14920
C686        C  0.65394508  0.04093194  0.55963989     0.35710
C687        C  0.63777001  0.06894462  0.60115314    -0.26300
C688        C  0.67315876  0.11077107  0.62165228    -0.15540
C689        C  0.72375131  0.12723056  0.59755892     0.36790
N690        N  0.76169547  0.17074648  0.61453836    -0.89790
H691        H  0.78384085  0.10542773  0.54375952     0.17910
H692        H  0.59922160  0.55516447  0.61913266     0.17900
N693        N  0.61630452  0.49726790  0.54128808    -0.88810
H694        H  0.80200693  0.15158395  0.61898439     0.35280
H695        H  0.74996938  0.18531186  0.64761200     0.40370
H696        H  0.57845983  0.51721981  0.52893771     0.39990
H697        H  0.63444639  0.47735701  0.51231181     0.34880
C698        C  0.88500997  0.28511947  0.39531865    -0.26850
C699        C  0.91226478  0.32902348  0.37048528    -0.14920
C700        C  0.96641013  0.34906780  0.38710808     0.35710
C701        C  0.99423924  0.32158430  0.42524005    -0.26300
C702        C  0.96988473  0.27355417  0.44683390    -0.15540
C703        C  0.91337120  0.25664945  0.43299174     0.36790
N704        N  0.88685158  0.20759657  0.45388936    -0.89790
H705        H  0.84399520  0.26886653  0.38192084     0.17910
H706        H  0.53735930  0.33523405  0.43571025     0.17900
N707        N  0.99684286  0.39373475  0.36352385    -0.88810
H708        H  0.84699875  0.19975465  0.43749405     0.35280
H709        H  0.87643393  0.21783692  0.48827087     0.40480
H710        H  0.97204992  0.41112655  0.33582987     0.39990
H711        H  0.50354548  0.42639302  0.38803329     0.34880
C712        C  0.56375855  0.13244416  0.38488219    -0.26850
C713        C  0.61162095  0.16261517  0.36863245    -0.14920
C714        C  0.63306323  0.20845196  0.39560836     0.35710
C715        C  0.60306727  0.22762420  0.43516901    -0.26300
C716        C  0.55121996  0.20168211  0.44828512    -0.15540
C717        C  0.53373045  0.15099662  0.42472979     0.36790
N718        N  0.48371456  0.11929607  0.43844088    -0.89790
H719        H  0.54675871  0.09707480  0.36441859     0.17910
H720        H  0.61735349  0.26627762  0.45265703     0.17900
N721        N  0.68245932  0.23913762  0.38007091    -0.88810
H722        H  0.45165794  0.12649986  0.41266715     0.35280
H723        H  0.46777840  0.13374942  0.47041383     0.40370
H724        H  0.66832279  0.28044607  0.37294641     0.39990
H725        H  0.71261687  0.24079709  0.40798843     0.34880
C726        C  0.92360290  0.24108101  0.56706221    -0.26850
C727        C  0.97490437  0.21401978  0.55490622    -0.14920
C728        C  0.99114368  0.16368778  0.57903567     0.35710
C729        C  0.95966534  0.14503225  0.61797813    -0.26300
C730        C  0.91244224  0.17669077  0.63381034    -0.15540
C731        C  0.89344658  0.22496610  0.60706812     0.36790
N732        N  0.84518682  0.26010623  0.61991986    -0.89790
H733        H  0.90797227  0.27708710  0.54667761     0.17910
H734        H  0.97512061  0.10852837  0.63819861     0.17900
N735        N  0.54097363  0.13221086  0.56577768    -0.88810
H736        H  0.85967096  0.30211757  0.62273835     0.35280
H737        H  0.82890626  0.24894650  0.65268886     0.40370
H738        H  0.53588953  0.11961581  0.53069916     0.39990
H739        H  0.57674767  0.15910925  0.56823749     0.34880
C740        C  0.61101410  0.27071004  0.55957425    -0.26850
C741        C  0.55486559  0.28727982  0.54516178    -0.14920
C742        C  0.53129363  0.33651661  0.56668134     0.35710
C743        C  0.55643001  0.35817559  0.60842993    -0.26300
C744        C  0.60783903  0.33534006  0.62694560    -0.15540
C745        C  0.63802360  0.29536898  0.59953454     0.36790
N746        N  0.69474105  0.27689063  0.61342912    -0.89790
H747        H  0.63200961  0.23532565  0.54234662     0.17910
H748        H  0.53372803  0.39070028  0.62791856     0.17900
N749        N  0.98041119  0.36410556  0.54848501    -0.88810
H750        H  0.69296872  0.26129681  0.64790109     0.35280
H751        H  0.72177175  0.31262728  0.61381502     0.40370
H752        H  0.96770330  0.34739523  0.51600450     0.39990
H753        H  0.94782972  0.35541420  0.57215956     0.34880
C754        C  0.51551770  0.74330329  0.52275509     0.00030
C755        C  0.00876091  0.73564131  0.47566977     0.00030
C756        C  0.75196859  0.49916222  0.47402383     0.00030
C757        C  0.74475958  0.00247497  0.52119183     0.00030
C758        C  0.61966018  0.83958225  0.67852951     0.41930
N759        N  0.63882687  0.79970089  0.74555469     0.00820
C760        C  0.88527406  0.83163894  0.88680400    -0.07060
H761        H  0.91029646  0.83158853  0.69243229     0.06310
C762        C  0.84710333  0.63414576  0.70238149    -0.07410
Co763      Co  0.73897726  0.85174765  0.80109929     0.74180
N764        N  0.84667270  0.83078556  0.74819320    -0.26590
Co765      Co  0.85741786  0.76292955  0.79935742     0.74070
C766        C  0.89442935  0.66887403  0.68299113     0.42030
N767        N  0.70389544  0.64147483  0.74093633     0.00430
N768        N  0.86606138  0.70491111  0.74754659     0.00540
N769        N  0.80987857  0.89349706  0.88967669    -0.47440
H770        H  0.69061805  0.90416271  0.69093406     0.06300
N771        N  0.80239682  0.86474009  0.75472004     0.00820
N772        N  0.86395017  0.69526742  0.84941005     0.00560
C773        C  0.88787076  0.63695579  0.90511580     0.42170
N774        N  0.65864163  0.67585221  0.73877878    -0.26050
C775        C  0.66644769  0.87604749  0.88377930    -0.06970
N776        N  0.60573708  0.79627055  0.70714287    -0.47150
N777        N  0.90193602  0.68763489  0.88485770    -0.47370
C778        C  0.61680793  0.85313288  0.90657628     0.41940
N779        N  0.80314729  0.85612911  0.85473463     0.00810
N780        N  0.65546144  0.67176658  0.84293023    -0.26070
N781        N  0.67549680  0.84264317  0.74515433    -0.26560
N782        N  0.69947918  0.63580035  0.84430102     0.00450
H783        H  0.57815746  0.68098529  0.88298056     0.06340
H784        H  0.81710942  0.57335250  0.88372712     0.06380
N785        N  0.84737305  0.82074744  0.85235798    -0.26610
N786        N  0.83186087  0.66021656  0.74274823    -0.26220
N787        N  0.63894770  0.79803854  0.84900788     0.00820
C788        C  0.83898411  0.90211218  0.69240295     0.42210
C789        C  0.63224117  0.66741553  0.69618776    -0.07470
N790        N  0.82747755  0.65213246  0.84583052    -0.26220
H791        H  0.82658473  0.59711374  0.68726251     0.06360
N792        N  0.79830690  0.90684854  0.72477478    -0.47440
H793        H  0.59542716  0.69084276  0.68215888     0.06350
C794        C  0.64351319  0.61013260  0.90037716     0.42050
C795        C  0.66634792  0.86975538  0.70360420    -0.06970
Co796      Co  0.64618137  0.73595165  0.79432669     0.73820
N797        N  0.71019883  0.61040239  0.70280884    -0.47160
C798        C  0.86074039  0.87935573  0.91145877     0.42310
N799        N  0.60064550  0.80454426  0.88335529    -0.47150
Co800      Co  0.76579054  0.64571195  0.79351363     0.73890
C801        C  0.83913867  0.61365162  0.87923306    -0.07480
C802        C  0.87279524  0.85054108  0.70840122    -0.07040
N803        N  0.67672042  0.84005658  0.84916349    -0.26570
N804        N  0.90319069  0.71141933  0.71340711    -0.47330
H805        H  0.92667171  0.81070074  0.89201777     0.06320
C806        C  0.61841370  0.65898247  0.87658022    -0.07450
Cl807      Cl  0.75217095  0.74900496  0.79707270    -0.50450
C808        C  0.66701315  0.62355851  0.67252102     0.42080
H809        H  0.68990643  0.91513228  0.89070972     0.06290
N810        N  0.69391576  0.59717482  0.87869561    -0.47170
C811        C  0.62680558  0.65898791  0.31825287     0.41930
N812        N  0.64827119  0.69854978  0.25231580     0.00820
C813        C  0.89681756  0.65365564  0.12221444    -0.07060
H814        H  0.91603745  0.68486566  0.31424574     0.06310
C815        C  0.84747421  0.86673899  0.29795542    -0.07410
Co816      Co  0.74698719  0.64362193  0.20190773     0.74180
N817        N  0.85393010  0.67186260  0.25671912    -0.26590
Co818      Co  0.86559290  0.73464430  0.20346485     0.74070
C819        C  0.89587682  0.83514099  0.32025796     0.42030
N820        N  0.71060006  0.85855710  0.25108435     0.00430
N821        N  0.87282144  0.79659374  0.25410781     0.00540
N822        N  0.81899887  0.59501121  0.11937791    -0.47440
H823        H  0.69706680  0.59028535  0.30954067     0.06300
N824        N  0.81016098  0.63615038  0.25268706     0.00820
N825        N  0.87321239  0.79990514  0.15192056     0.00560
C826        C  0.90579982  0.86078171  0.10215652     0.42170
N827        N  0.66593883  0.82387158  0.25340082    -0.26050
C828        C  0.66553632  0.61234047  0.11988648    -0.06970
N829        N  0.61444997  0.70280690  0.28909345    -0.47150
N830        N  0.91515392  0.80814584  0.12112430    -0.47370
C831        C  0.61422062  0.63623522  0.09740346     0.41940
N832        N  0.81218084  0.63629000  0.15087519     0.00810
N833        N  0.66280912  0.82411513  0.15033331    -0.26070
N834        N  0.68384427  0.65452834  0.25483423    -0.26560
N835        N  0.70786665  0.85885498  0.14935594     0.00450
H836        H  0.58057769  0.82306261  0.11324216     0.06340
H837        H  0.83488792  0.92580560  0.11842272     0.06380
N838        N  0.85726119  0.67098317  0.15293049    -0.26610
N839        N  0.83663307  0.83994760  0.25650662    -0.26220
N840        N  0.64639624  0.69556399  0.14929160     0.00820
C841        C  0.84769892  0.61371879  0.31977648     0.42210
C842        C  0.63763861  0.83656554  0.29329874    -0.07470
N843        N  0.83750668  0.84394727  0.15326211    -0.26220
H844        H  0.82384642  0.90269034  0.31162674     0.06360
N845        N  0.80531699  0.60134460  0.28883183    -0.47440
H846        H  0.60008571  0.81464289  0.30645836     0.06350
C847        C  0.64805100  0.89185844  0.09721299     0.42050
C848        C  0.67355507  0.62684417  0.29587084    -0.06970
Co849      Co  0.65452090  0.76057978  0.20092037     0.73820
N850        N  0.71480166  0.89428224  0.28655813    -0.47160
C851        C  0.87166466  0.60338971  0.10023004     0.42310
N852        N  0.60453594  0.68813221  0.11697748    -0.47150
Co853      Co  0.77323749  0.85128306  0.20214240     0.73890
C854        C  0.85450575  0.88417202  0.12312210    -0.07480
C855        C  0.88017987  0.66133544  0.29899654    -0.07040
N856        N  0.68229624  0.65162933  0.15122534    -0.26570
N857        N  0.90821670  0.79241419  0.29088164    -0.47330
H858        H  0.93911017  0.67236453  0.11765012     0.06320
C859        C  0.62302196  0.84157822  0.11865829    -0.07450
Cl860      Cl  0.76007289  0.74754324  0.20144657    -0.50450
C861        C  0.67062686  0.88373749  0.31489615     0.42080
H862        H  0.68538506  0.57096337  0.11519968     0.06290
N863        N  0.70081153  0.90039228  0.11762471    -0.47170
O864        O  0.93511507  0.94399216  0.05930089    -0.80670
O865        O  0.58518932  0.55308151  0.05422117    -0.80690
O866        O  0.56319138  0.92703240  0.05763962    -0.80700
O867        O  0.95427126  0.57125372  0.05746974    -0.80640
O868        O  0.64944694  0.95810605  0.03347192    -0.80760
O869        O  0.86674333  0.53644913  0.03772234    -0.80680
O870        O  0.54588544  0.63772550  0.03392662    -0.80670
O871        O  0.97051993  0.85855539  0.03874874    -0.80710
C872        C  0.93881445  0.88862772  0.06484284     1.09020
C873        C  0.57994209  0.60823698  0.05987359     1.08910
C874        C  0.61954819  0.92726481  0.06075620     1.09040
C875        C  0.89831134  0.56884360  0.06310723     1.08920
O876        O  0.90529042  0.55408399  0.94964304    -0.80670
O877        O  0.60101548  0.93782771  0.94767800    -0.80750
O878        O  0.94661464  0.89908926  0.95191314    -0.80680
O879        O  0.56266904  0.59441094  0.94716702    -0.80660
O880        O  0.63624992  0.53925859  0.96128047    -0.80710
O881        O  0.87357552  0.95242701  0.96912491    -0.80680
O882        O  0.96048529  0.62635162  0.96531825    -0.80640
O883        O  0.54872733  0.86598512  0.96821062    -0.80710
Co884      Co  0.92735024  0.50386436  0.00360481     1.51530
Co885      Co  0.58578285  0.49068688  0.00053772     1.51690
Co886      Co  0.50012023  0.91964940  0.00390940     1.51570
Co887      Co  0.51326245  0.57544856  0.00162664     1.51470
O888        O  0.50512632  0.49713585  0.97428907    -1.42600
C889        C  0.91959774  0.60503157  0.94192528     1.08950
C890        C  0.58670727  0.88635392  0.94245242     1.09040
C891        C  0.89431907  0.91224669  0.94593691     1.08980
C892        C  0.61359627  0.57934594  0.93814054     1.08950
C893        C  0.66913503  0.97926815  0.41989952    -0.26850
C894        C  0.71749660  0.95823327  0.44543166    -0.14920
C895        C  0.74158462  0.90568415  0.43262184     0.35710
C896        C  0.72065757  0.87792664  0.39210736    -0.26300
C897        C  0.67544818  0.90154121  0.36431360    -0.15540
C898        C  0.64981295  0.95299037  0.37844915     0.36790
N899        N  0.61078603  0.48392704  0.34785788    -0.89790
H900        H  0.65032986  0.51987950  0.42874589     0.17910
H901        H  0.74421739  0.84115302  0.37961051     0.17900
N902        N  0.79037153  0.88289979  0.45831026    -0.88810
H903        H  0.57747824  0.45677388  0.33718624     0.35280
H904        H  0.63311338  0.49557077  0.31758862     0.40370
H905        H  0.82466467  0.87894303  0.43506939     0.39990
H906        H  0.77959033  0.84199188  0.47003131     0.34880
C907        C  0.83634090  0.51963653  0.42507123    -0.26850
C908        C  0.78602456  0.54129896  0.44585241    -0.14920
C909        C  0.76416435  0.59467584  0.42916728     0.35710
C910        C  0.79159809  0.62229490  0.39176756    -0.26300
C911        C  0.83931008  0.59825237  0.36944548    -0.15540
C912        C  0.86244453  0.54689674  0.38674927     0.36790
N913        N  0.90795936  0.51913224  0.36176481    -0.89790
H914        H  0.85219946  0.47801190  0.43549515     0.17910
H915        H  0.77184348  0.66035798  0.37673857     0.17900
N916        N  0.71157377  0.62001112  0.44505775    -0.88810
H917        H  0.91872153  0.48065053  0.37835673     0.35280
H918        H  0.94470194  0.54493568  0.36384790     0.40370
H919        H  0.68734322  0.59272102  0.46549812     0.39990
H920        H  0.72260437  0.65551923  0.46550002     0.34880
C921        C  0.85718800  0.92793104  0.60442595    -0.26850
C922        C  0.82319601  0.92714760  0.64489816    -0.14920
C923        C  0.76794624  0.95187553  0.63998537     0.35710
C924        C  0.74033184  0.95072144  0.59648743    -0.26300
C925        C  0.77287995  0.96193629  0.55666812    -0.15540
C926        C  0.83376490  0.95086743  0.56098975     0.36790
N927        N  0.87159603  0.96632792  0.52367255    -0.89790
H928        H  0.90251550  0.91864167  0.60875990     0.17910
H929        H  0.69410286  0.95483910  0.59590317     0.17900
N930        N  0.74360129  0.98501214  0.67734959    -0.88810
H931        H  0.91423294  0.95539641  0.53258884     0.35280
H932        H  0.87088065  0.01083411  0.52116598     0.40370
H933        H  0.77190457  0.01858035  0.68438377     0.39990
H934        H  0.70394054  0.00277349  0.66676873     0.34880
C935        C  0.74155596  0.59682216  0.55812237    -0.26850
C936        C  0.71043563  0.54993921  0.54204839    -0.14920
C937        C  0.65394507  0.54093194  0.55963989     0.35710
C938        C  0.63777001  0.56894462  0.60115314    -0.26300
C939        C  0.67315875  0.61077107  0.62165228    -0.15540
C940        C  0.72375130  0.62723056  0.59755892     0.36790
N941        N  0.76169546  0.67074648  0.61453836    -0.89790
H942        H  0.78384084  0.60542773  0.54375952     0.17910
H943        H  0.59922161  0.05516447  0.61913265     0.17900
N944        N  0.61630452  0.99726790  0.54128807    -0.88810
H945        H  0.80200692  0.65158395  0.61898439     0.35280
H946        H  0.74996937  0.68531187  0.64761200     0.40370
H947        H  0.57845983  0.01721982  0.52893770     0.39990
H948        H  0.63444639  0.97735702  0.51231180     0.34880
C949        C  0.88500997  0.78511947  0.39531865    -0.26850
C950        C  0.91226478  0.82902348  0.37048528    -0.14920
C951        C  0.96641013  0.84906780  0.38710808     0.35710
C952        C  0.99423924  0.82158430  0.42524005    -0.26300
C953        C  0.96988473  0.77355417  0.44683390    -0.15540
C954        C  0.91337120  0.75664945  0.43299174     0.36790
N955        N  0.88685158  0.70759657  0.45388936    -0.89790
H956        H  0.84399520  0.76886654  0.38192084     0.17910
H957        H  0.53735930  0.83523405  0.43571025     0.17900
N958        N  0.99684286  0.89373475  0.36352385    -0.88810
H959        H  0.84699875  0.69975465  0.43749405     0.35280
H960        H  0.87643393  0.71783692  0.48827086     0.40480
H961        H  0.97204993  0.91112655  0.33582986     0.39990
H962        H  0.50354549  0.92639302  0.38803329     0.34880
C963        C  0.56375855  0.63244416  0.38488219    -0.26850
C964        C  0.61162094  0.66261517  0.36863244    -0.14920
C965        C  0.63306323  0.70845196  0.39560836     0.35710
C966        C  0.60306727  0.72762420  0.43516901    -0.26300
C967        C  0.55121996  0.70168211  0.44828512    -0.15540
C968        C  0.53373044  0.65099662  0.42472979     0.36790
N969        N  0.48371456  0.61929607  0.43844088    -0.89790
H970        H  0.54675871  0.59707480  0.36441859     0.17910
H971        H  0.61735349  0.76627762  0.45265703     0.17900
N972        N  0.68245932  0.73913762  0.38007090    -0.88810
H973        H  0.45165794  0.62649986  0.41266715     0.35280
H974        H  0.46777840  0.63374942  0.47041383     0.40370
H975        H  0.66832279  0.78044607  0.37294641     0.39990
H976        H  0.71261686  0.74079709  0.40798843     0.34880
C977        C  0.92360289  0.74108101  0.56706220    -0.26850
C978        C  0.97490436  0.71401978  0.55490622    -0.14920
C979        C  0.99114367  0.66368778  0.57903567     0.35710
C980        C  0.95966533  0.64503225  0.61797813    -0.26300
C981        C  0.91244224  0.67669076  0.63381034    -0.15540
C982        C  0.89344658  0.72496610  0.60706812     0.36790
N983        N  0.84518681  0.76010623  0.61991986    -0.89790
H984        H  0.90797226  0.77708710  0.54667761     0.17910
H985        H  0.97512061  0.60852837  0.63819861     0.17900
N986        N  0.54097363  0.63221086  0.56577768    -0.88810
H987        H  0.85967096  0.80211757  0.62273834     0.35280
H988        H  0.82890625  0.74894650  0.65268886     0.40370
H989        H  0.53588953  0.61961581  0.53069916     0.39990
H990        H  0.57674767  0.65910925  0.56823749     0.34880
C991        C  0.61101409  0.77071004  0.55957425    -0.26850
C992        C  0.55486558  0.78727983  0.54516178    -0.14920
C993        C  0.53129363  0.83651661  0.56668134     0.35710
C994        C  0.55643000  0.85817559  0.60842993    -0.26300
C995        C  0.60783903  0.83534006  0.62694560    -0.15540
C996        C  0.63802360  0.79536898  0.59953454     0.36790
N997        N  0.69474105  0.77689063  0.61342912    -0.89790
H998        H  0.63200961  0.73532566  0.54234662     0.17910
H999        H  0.53372802  0.89070028  0.62791857     0.17900
N1000       N  0.98041118  0.86410556  0.54848501    -0.88810
H1001       H  0.69296872  0.76129681  0.64790109     0.35280
H1002       H  0.72177174  0.81262729  0.61381502     0.40370
H1003       H  0.96770330  0.84739523  0.51600451     0.39990
H1004       H  0.94782971  0.85541420  0.57215956     0.34880
loop_ 
_geom_bond_atom_site_label_1 
_geom_bond_atom_site_label_2 
_geom_bond_distance 
_geom_bond_site_symmetry_2 
_ccdc_geom_bond_type 
C1          C239   1.510       .  S
C1          C727   1.488   1_455  S
C1          C504   1.354       .  D
C2          C200   1.493       .  S
C2          C716   1.494       .  S
C2          C503   1.354       .  D
C3          C155   1.501   1_565  S
C3          C392   1.482       .  S
C3          C255   1.353   1_565  D
C4          C172   1.517       .  S
C4          C434   1.496       .  S
C4          C254   1.353       .  D
C5           N23   1.340       .  A
C5           C42   1.465       .  S
C5          C242   1.486       .  S
N6           N23   1.321       .  A
N6           N28   1.317       .  A
N6          Co43   2.036       .  S
C7           N32   1.325       .  A
C7           C45   1.442       .  S
C7           H52   1.082       .  S
H8           C49   1.081       .  S
C9           N33   1.352       .  A
C9           C13   1.478       .  S
C9           H38   1.076       .  S
Co10         N28   2.151       .  S
Co10         N18   2.011       .  S
Co10         N50   2.019       .  S
Co10         N26   2.107       .  S
Co10        Cl54   2.430       .  S
N11          C49   1.369       .  A
N11          N18   1.312       .  A
N11         Co12   2.159       .  S
Co12         N15   2.018       .  S
Co12         N32   2.044       .  S
Co12         N19   2.127       .  S
Co12        Cl54   2.455       .  S
C13          N51   1.334       .  A
C13         C228   1.473       .  S
N14          N21   1.320       .  A
N14          N44   1.316       .  A
N14         Co47   2.049       .  S
N15          N33   1.319       .  A
N15          N51   1.314       .  A
N16          C45   1.357       .  A
N16          N26   1.332       .  A
H17          C42   1.049       .  S
N18          N39   1.301       .  A
N19          N37   1.320       .  A
N19          N24   1.333       .  A
C20          N24   1.360       .  A
C20          C48   1.442       .  S
C20         C136   1.466       .  S
N21          C36   1.358       .  A
N21         Co43   2.140       .  S
C22          N50   1.321       .  A
C22          C25   1.432       .  S
C22          H56   1.082       .  S
C25          N46   1.367       .  A
C25         C137   1.469       .  S
N26          N32   1.318       .  A
N27          C53   1.328       .  A
N27          N29   1.320       .  A
N27         Co43   2.044       .  S
N28          C42   1.349       .  A
N29          N57   1.336       .  A
N29         Co47   2.135       .  S
H30          C53   1.082       .  S
H31          C48   1.082       .  S
N33         Co47   2.145       .  S
N34          N46   1.338       .  A
N34          N50   1.317       .  A
N34         Co43   2.139       .  S
C35          N39   1.331       .  A
C35          C49   1.502       .  S
C35         C169   1.505       .  S
C36          C55   1.475       .  S
C36          H40   1.081       .  S
N37          C48   1.328       .  A
N37         Co47   2.044       .  S
C41          N57   1.362       .  A
C41          C53   1.442       .  S
C41         C139   1.473       .  S
Co43        Cl54   2.469       .  S
N44          C55   1.339       .  A
C45         C138   1.460       .  S
Co47        Cl54   2.443       .  S
C55         C186   1.484       .  S
C58          N76   1.343       .  A
C58          C95   1.472       .  S
C58         C211   1.480       .  S
N59          N76   1.319       .  A
N59          N81   1.319       .  A
N59         Co96   2.061       .  S
C60          N85   1.339       .  A
C60          C98   1.452       .  S
C60         H105   1.082       .  S
H61         C102   1.081       .  S
C62          N86   1.354       .  A
C62          C66   1.472       .  S
C62          H91   1.081       .  S
Co63         N81   2.129       .  S
Co63         N71   2.038       .  S
Co63        N103   2.062       .  S
Co63         N79   2.116       .  S
Co63       Cl107   2.455       .  S
N64         C102   1.354       .  A
N64          N71   1.318       .  A
N64         Co65   2.125       .  S
Co65         N68   2.051       .  S
Co65         N85   2.079       .  S
Co65         N72   2.121       .  S
Co65       Cl107   2.457       .  S
C66         N104   1.339       .  A
C66         C197   1.473       .  S
N67          N74   1.317       .  A
N67          N97   1.313       .  A
N67        Co100   2.032       .  S
N68          N86   1.318       .  A
N68         N104   1.316       .  A
N69          C98   1.357       .  A
N69          N79   1.330       .  A
H70          C95   1.080       .  S
N71          N92   1.314       .  A
N72          N90   1.322       .  A
N72          N77   1.331       .  A
C73          N77   1.359       .  A
C73         C101   1.445       .  S
C73         C119   1.468       .  S
N74          C89   1.351       .  A
N74         Co96   2.118       .  S
C75         N103   1.335       .  A
C75          C78   1.447       .  S
C75         H109   1.082       .  S
C78          N99   1.359       .  A
C78         C120   1.472       .  S
N79          N85   1.323       .  A
N80         C106   1.336       .  A
N80          N82   1.324       .  A
N80         Co96   2.075       .  S
N81          C95   1.355       .  A
N82         N110   1.330       .  A
N82        Co100   2.113       .  S
H83         C106   1.082       .  S
H84         C101   1.082       .  S
N86        Co100   2.122       .  S
N87          N99   1.332       .  A
N87         N103   1.322       .  A
N87         Co96   2.123       .  S
C88          N92   1.335       .  A
C88         C102   1.473       .  S
C88         C158   1.469       .  S
C89         C108   1.473       .  S
C89          H93   1.081       .  S
N90         C101   1.334       .  A
N90        Co100   2.058       .  S
C94         N110   1.355       .  A
C94         C106   1.450       .  S
C94         C121   1.468       .  S
Co96       Cl107   2.458       .  S
N97         C108   1.334       .  A
C98         C122   1.474       .  S
Co100      Cl107   2.451       .  S
C108        C144   1.466       .  S
O111        C119   1.309       .  A
O111       Co382   2.113       .  S
O112        C120   1.309       .  A
O112       Co132   2.115   1_545  S
O113        C121   1.304       .  A
O113       Co133   2.096       .  S
O114        C122   1.308       .  A
O114       Co636   2.111       .  S
O115        C121   1.271       .  A
O115       Co383   1.886       .  S
O116        C122   1.270       .  A
O116       Co131   1.881       .  S
O117        C120   1.269       .  A
O117       Co134   1.878       .  S
O118        C119   1.267       .  A
O118       Co635   1.874       .  S
O123        C136   1.259       .  A
O123       Co131   1.985   1_556  S
O124        C137   1.260       .  A
O124       Co383   1.985   1_556  S
O125        C138   1.255       .  A
O125       Co635   1.968   1_556  S
O126        C139   1.260       .  A
O126       Co134   1.987   1_556  S
O127        C139   1.252       .  A
O127       Co132   1.985   1_546  S
O128        C138   1.251       .  A
O128       Co382   1.980   1_556  S
O129        C136   1.250       .  A
O129       Co636   1.977   1_556  S
O130        C137   1.247       .  A
O130       Co133   1.980   1_556  S
Co131       O362   2.113   1_545  S
Co131       O379   1.980   1_544  S
Co131       O637   2.001   1_544  S
Co132       O366   1.886       .  S
Co132       O375   1.985   1_554  S
Co132       O135   1.999   1_554  S
Co133       O620   1.874   1_455  S
Co133       O627   1.968   1_454  S
Co133       O386   2.002   1_554  S
Co134       O616   2.111   1_455  S
Co134       O631   1.977   1_454  S
Co134       O135   2.003   1_544  S
O135       Co633   2.001   1_466  S
O135       Co384   2.002   1_556  S
C140        H398   1.078       .  S
C140        C141   1.407       .  A
C140        C145   1.395       .  A
C141        C254   1.482       .  S
C141        C142   1.403       .  A
C142        C143   1.401       .  A
C142        N149   1.432       .  S
C143        H148   1.083       .  S
C143        C144   1.408       .  A
C144        C145   1.406       .  A
C145        N397   1.433       .  S
N146        C396   1.433       .  S
N146        H150   1.041       .  S
N146        H151   1.045       .  S
H147        C391   1.078   1_545  S
N149        H152   1.045       .  S
N149        H153   1.045       .  S
C154        H161   1.080   1_545  S
C154        C155   1.409       .  A
C154        C159   1.405       .  A
C155        C156   1.424       .  A
C156        C157   1.402       .  A
C156        N163   1.433       .  S
C157        H162   1.083       .  S
C157        C158   1.401       .  A
C158        C159   1.399       .  A
C159        N160   1.436       .  S
N160        H164   1.043   1_545  S
N160        H165   1.044       .  S
N163        H166   1.034       .  S
N163        H167   1.045       .  S
C168        H175   1.074       .  S
C168        C169   1.403       .  A
C168        C173   1.437       .  A
C169        C170   1.406       .  A
C170        C171   1.378       .  A
C170        N177   1.439       .  S
C171        H176   1.073       .  S
C171        C172   1.393       .  A
C172        C173   1.434       .  A
C173        N174   1.431       .  S
N174        H178   1.044       .  S
N174        H179   1.045       .  S
N177        H180   1.041       .  S
N177        H181   1.045       .  S
C182        H189   1.085       .  S
C182        C183   1.388       .  A
C182        C187   1.397       .  A
C183        C255   1.496       .  S
C183        C184   1.423       .  A
C184        C185   1.407       .  A
C184        N442   1.437   1_545  S
C185        H441   1.084       .  S
C185        C186   1.399       .  A
C186        C187   1.419       .  A
C187        N188   1.425       .  S
N188        H192   1.039       .  S
N188        H193   1.040       .  S
H190        C436   1.084       .  S
N191        C435   1.437       .  S
N191        H194   1.045       .  S
N191        H195   1.041       .  S
C196        H203   1.085       .  S
C196        C197   1.401       .  A
C196        C201   1.408       .  A
C197        C198   1.411       .  A
C198        C199   1.401       .  A
C198        N205   1.433       .  S
C199        H706   1.084       .  S
C199        C200   1.403       .  A
C200        C201   1.414       .  A
C201        N202   1.435       .  S
N202        H206   1.041       .  S
N202        H207   1.037       .  S
H204        C701   1.084   1_455  S
N205        H208   1.044       .  S
N205        H711   1.046       .  S
H209        N707   1.046   1_455  S
C210        H217   1.084       .  S
C210        C211   1.398       .  A
C210        C215   1.407       .  A
C211        C212   1.407       .  A
C212        C213   1.405       .  A
C212        N219   1.426       .  S
C213        H218   1.083       .  S
C213        C214   1.401       .  A
C214        C504   1.494       .  S
C214        C215   1.421       .  A
C215        N216   1.434   1_455  S
N216        H220   1.044       .  S
N216        H221   1.043       .  S
N219        H222   1.039       .  S
N219        H223   1.045       .  S
C224        H231   1.079       .  S
C224        C225   1.394       .  A
C224        C229   1.394       .  A
C225        C503   1.488       .  S
C225        C226   1.408       .  A
C226        C227   1.403       .  A
C226        N735   1.424       .  S
C227        H232   1.084       .  S
C227        C228   1.401       .  A
C228        C229   1.423       .  A
C229        N230   1.439       .  S
N230        H234   1.043       .  S
N230        H235   1.041       .  S
N233        C728   1.424   1_455  S
N233        H236   1.043       .  S
N233        H237   1.042       .  S
C238        H245   1.083       .  S
C238        C239   1.407       .  A
C238        C243   1.409       .  A
C239        C240   1.420       .  A
C240        C241   1.406       .  A
C240        N749   1.428   1_455  S
C241        H246   1.084       .  S
C241        C242   1.395       .  A
C242        C243   1.412       .  A
C243        N244   1.428       .  S
N244        H248   1.043       .  S
N244        H249   1.046       .  S
N247        C742   1.428       .  S
N247        H250   1.039       .  S
N247        H251   1.038       .  S
C252        C978   1.488   1_455  S
C252        C490   1.510       .  S
C252        C755   1.354       .  D
C253        C451   1.493       .  S
C253        C967   1.494       .  S
C253        C754   1.354       .  D
C254        C406   1.501       .  S
C255        C423   1.517   1_545  S
C256        N274   1.340       .  A
C256        C293   1.465       .  S
C256        C493   1.486       .  S
N257        N274   1.321       .  A
N257        N279   1.317       .  A
N257       Co294   2.036       .  S
C258        N283   1.325       .  A
C258        C296   1.442       .  S
C258        H303   1.082       .  S
H259        C300   1.081       .  S
C260        N284   1.352       .  A
C260        C264   1.478       .  S
C260        H289   1.076       .  S
Co261       N279   2.151       .  S
Co261       N269   2.011       .  S
Co261       N301   2.019       .  S
Co261       N277   2.107       .  S
Co261      Cl305   2.430       .  S
N262        C300   1.369       .  A
N262        N269   1.312       .  A
N262       Co263   2.159       .  S
Co263       N266   2.018       .  S
Co263       N283   2.044       .  S
Co263       N270   2.127       .  S
Co263      Cl305   2.455       .  S
C264        N302   1.334       .  A
C264        C479   1.473       .  S
N265        N272   1.320       .  A
N265        N295   1.316       .  A
N265       Co298   2.049       .  S
N266        N284   1.319       .  A
N266        N302   1.314       .  A
N267        C296   1.357       .  A
N267        N277   1.332       .  A
H268        C293   1.049       .  S
N269        N290   1.301       .  A
N270        N288   1.320       .  A
N270        N275   1.333       .  A
C271        N275   1.360       .  A
C271        C299   1.442       .  S
C271        C387   1.466       .  S
N272        C287   1.358       .  A
N272       Co294   2.140       .  S
C273        N301   1.321       .  A
C273        C276   1.432       .  S
C273        H307   1.082       .  S
C276        N297   1.367       .  A
C276        C388   1.469       .  S
N277        N283   1.318       .  A
N278        C304   1.328       .  A
N278        N280   1.320       .  A
N278       Co294   2.044       .  S
N279        C293   1.349       .  A
N280        N308   1.336       .  A
N280       Co298   2.135       .  S
H281        C304   1.082       .  S
H282        C299   1.082       .  S
N284       Co298   2.145       .  S
N285        N297   1.338       .  A
N285        N301   1.317       .  A
N285       Co294   2.139       .  S
C286        N290   1.331       .  A
C286        C300   1.502       .  S
C286        C420   1.505       .  S
C287        C306   1.475       .  S
C287        H291   1.081       .  S
N288        C299   1.328       .  A
N288       Co298   2.044       .  S
C292        N308   1.362       .  A
C292        C304   1.442       .  S
C292        C390   1.473       .  S
Co294      Cl305   2.469       .  S
N295        C306   1.339       .  A
C296        C389   1.460       .  S
Co298      Cl305   2.443       .  S
C306        C437   1.484       .  S
C309        N327   1.343       .  A
C309        C346   1.472       .  S
C309        C462   1.480       .  S
N310        N327   1.319       .  A
N310        N332   1.319       .  A
N310       Co347   2.061       .  S
C311        N336   1.339       .  A
C311        C349   1.452       .  S
C311        H356   1.082       .  S
H312        C353   1.081       .  S
C313        N337   1.354       .  A
C313        C317   1.472       .  S
C313        H342   1.081       .  S
Co314       N332   2.129       .  S
Co314       N322   2.038       .  S
Co314       N354   2.062       .  S
Co314       N330   2.116       .  S
Co314      Cl358   2.455       .  S
N315        C353   1.354       .  A
N315        N322   1.318       .  A
N315       Co316   2.125       .  S
Co316       N319   2.051       .  S
Co316       N336   2.079       .  S
Co316       N323   2.121       .  S
Co316      Cl358   2.457       .  S
C317        N355   1.339       .  A
C317        C448   1.473       .  S
N318        N325   1.317       .  A
N318        N348   1.313       .  A
N318       Co351   2.032       .  S
N319        N337   1.318       .  A
N319        N355   1.316       .  A
N320        C349   1.357       .  A
N320        N330   1.330       .  A
H321        C346   1.080       .  S
N322        N343   1.314       .  A
N323        N341   1.322       .  A
N323        N328   1.331       .  A
C324        N328   1.359       .  A
C324        C352   1.445       .  S
C324        C370   1.468       .  S
N325        C340   1.351       .  A
N325       Co347   2.118       .  S
C326        N354   1.335       .  A
C326        C329   1.447       .  S
C326        H360   1.082       .  S
C329        N350   1.359       .  A
C329        C371   1.472       .  S
N330        N336   1.323       .  A
N331        C357   1.336       .  A
N331        N333   1.324       .  A
N331       Co347   2.075       .  S
N332        C346   1.355       .  A
N333        N361   1.330       .  A
N333       Co351   2.113       .  S
H334        C357   1.082       .  S
H335        C352   1.082       .  S
N337       Co351   2.122       .  S
N338        N350   1.332       .  A
N338        N354   1.322       .  A
N338       Co347   2.123       .  S
C339        N343   1.335       .  A
C339        C353   1.473       .  S
C339        C409   1.469       .  S
C340        C359   1.473       .  S
C340        H344   1.081       .  S
N341        C352   1.334       .  A
N341       Co351   2.058       .  S
C345        N361   1.355       .  A
C345        C357   1.450       .  S
C345        C372   1.468       .  S
Co347      Cl358   2.458       .  S
N348        C359   1.334       .  A
C349        C373   1.474       .  S
Co351      Cl358   2.451       .  S
C359        C395   1.466       .  S
O362        C370   1.309       .  A
O363        C371   1.309       .  A
O363       Co383   2.115       .  S
O364        C372   1.304       .  A
O364       Co384   2.096       .  S
O365        C373   1.308       .  A
O365       Co887   2.111       .  S
O366        C372   1.271       .  A
O367        C373   1.270       .  A
O367       Co382   1.881       .  S
O368        C371   1.269       .  A
O368       Co385   1.878       .  S
O369        C370   1.267       .  A
O369       Co886   1.874       .  S
O374        C387   1.259       .  A
O374       Co382   1.985   1_556  S
O375        C388   1.260       .  A
O376        C389   1.255       .  A
O376       Co886   1.968   1_556  S
O377        C390   1.260       .  A
O377       Co385   1.987   1_556  S
O378        C390   1.252       .  A
O378       Co383   1.985   1_556  S
O379        C389   1.251       .  A
O380        C387   1.250       .  A
O380       Co887   1.977   1_556  S
O381        C388   1.247       .  A
O381       Co384   1.980   1_556  S
Co382       O888   2.001   1_554  S
Co383       O386   1.999   1_554  S
Co384       O871   1.874   1_455  S
Co384       O878   1.968   1_454  S
Co385       O867   2.111   1_455  S
Co385       O882   1.977   1_454  S
Co385       O386   2.003   1_554  S
O386       Co884   2.001   1_456  S
C391        C392   1.407       .  A
C391        C396   1.395       .  A
C392        C393   1.403       .  A
C393        C394   1.401       .  A
C393        N400   1.432       .  S
C394        H399   1.083       .  S
C394        C395   1.408       .  A
C395        C396   1.406       .  A
N397        H401   1.041       .  S
N397        H402   1.045       .  S
N400        H403   1.045       .  S
N400        H404   1.045       .  S
C405        H412   1.080       .  S
C405        C406   1.409       .  A
C405        C410   1.405       .  A
C406        C407   1.424       .  A
C407        C408   1.402       .  A
C407        N414   1.433       .  S
C408        H413   1.083       .  S
C408        C409   1.401       .  A
C409        C410   1.399       .  A
C410        N411   1.436       .  S
N411        H415   1.043       .  S
N411        H416   1.044       .  S
N414        H417   1.034       .  S
N414        H418   1.045       .  S
C419        H426   1.074       .  S
C419        C420   1.403       .  A
C419        C424   1.437       .  A
C420        C421   1.406       .  A
C421        C422   1.378       .  A
C421        N428   1.439       .  S
C422        H427   1.073       .  S
C422        C423   1.393       .  A
C423        C424   1.434       .  A
C424        N425   1.431       .  S
N425        H429   1.044       .  S
N425        H430   1.045   1_565  S
N428        H431   1.041   1_565  S
N428        H432   1.045   1_565  S
C433        H440   1.085       .  S
C433        C434   1.388       .  A
C433        C438   1.397       .  A
C434        C435   1.423       .  A
C435        C436   1.407       .  A
C436        C437   1.399       .  A
C437        C438   1.419       .  A
C438        N439   1.425       .  S
N439        H443   1.039       .  S
N439        H444   1.040       .  S
N442        H445   1.045   1_565  S
N442        H446   1.041       .  S
C447        H454   1.085       .  S
C447        C448   1.401       .  A
C447        C452   1.408       .  A
C448        C449   1.411       .  A
C449        C450   1.401       .  A
C449        N456   1.433       .  S
C450        H957   1.084       .  S
C450        C451   1.403       .  A
C451        C452   1.414       .  A
C452        N453   1.435       .  S
N453        H457   1.041       .  S
N453        H458   1.037       .  S
H455        C952   1.084   1_455  S
N456        H459   1.044       .  S
N456        H962   1.046       .  S
H460        N958   1.046   1_455  S
C461        H468   1.084       .  S
C461        C462   1.398       .  A
C461        C466   1.407       .  A
C462        C463   1.407       .  A
C463        C464   1.405       .  A
C463        N470   1.426       .  S
C464        H469   1.083       .  S
C464        C465   1.401       .  A
C465        C755   1.494       .  S
C465        C466   1.421       .  A
C466        N467   1.434   1_455  S
N467        H471   1.044       .  S
N467        H472   1.043       .  S
N470        H473   1.039       .  S
N470        H474   1.045       .  S
C475        H482   1.079       .  S
C475        C476   1.394       .  A
C475        C480   1.394       .  A
C476        C754   1.488       .  S
C476        C477   1.408       .  A
C477        C478   1.403       .  A
C477        N986   1.424       .  S
C478        H483   1.084       .  S
C478        C479   1.401       .  A
C479        C480   1.423       .  A
C480        N481   1.439       .  S
N481        H485   1.043       .  S
N481        H486   1.041       .  S
N484        C979   1.424   1_455  S
N484        H487   1.043       .  S
N484        H488   1.042       .  S
C489        H496   1.083       .  S
C489        C490   1.407       .  A
C489        C494   1.409       .  A
C490        C491   1.420       .  A
C491        C492   1.406       .  A
C491       N1000   1.428   1_455  S
C492        H497   1.084       .  S
C492        C493   1.395       .  A
C493        C494   1.412       .  A
C494        N495   1.428       .  S
N495        H499   1.043       .  S
N495        H500   1.046       .  S
N498        C993   1.428       .  S
N498        H501   1.039       .  S
N498        H502   1.038       .  S
C503        C741   1.510       .  S
C504        C702   1.493   1_455  S
C505        C894   1.482       .  S
C505        C657   1.501   1_565  S
C505        C757   1.353   1_565  D
C506        C674   1.517       .  S
C506        C936   1.496       .  S
C506        C756   1.353       .  D
C507        N525   1.340       .  A
C507        C544   1.465       .  S
C507        C744   1.486       .  S
N508        N525   1.321       .  A
N508        N530   1.317       .  A
N508       Co545   2.036       .  S
C509        N534   1.325       .  A
C509        C547   1.442       .  S
C509        H554   1.082       .  S
H510        C551   1.081       .  S
C511        N535   1.352       .  A
C511        C515   1.478       .  S
C511        H540   1.076       .  S
Co512       N530   2.151       .  S
Co512       N520   2.011       .  S
Co512       N552   2.019       .  S
Co512       N528   2.107       .  S
Co512      Cl556   2.430       .  S
N513        C551   1.369       .  A
N513        N520   1.312       .  A
N513       Co514   2.159       .  S
Co514       N517   2.018       .  S
Co514       N534   2.044       .  S
Co514       N521   2.127       .  S
Co514      Cl556   2.455       .  S
C515        N553   1.334       .  A
C515        C730   1.473       .  S
N516        N523   1.320       .  A
N516        N546   1.316       .  A
N516       Co549   2.049       .  S
N517        N535   1.319       .  A
N517        N553   1.314       .  A
N518        C547   1.357       .  A
N518        N528   1.332       .  A
H519        C544   1.049       .  S
N520        N541   1.301       .  A
N521        N539   1.320       .  A
N521        N526   1.333       .  A
C522        N526   1.360       .  A
C522        C550   1.442       .  S
C522        C638   1.466       .  S
N523        C538   1.358       .  A
N523       Co545   2.140       .  S
C524        N552   1.321       .  A
C524        C527   1.432       .  S
C524        H558   1.082       .  S
C527        N548   1.367       .  A
C527        C639   1.469       .  S
N528        N534   1.318       .  A
N529        C555   1.328       .  A
N529        N531   1.320       .  A
N529       Co545   2.044       .  S
N530        C544   1.349       .  A
N531        N559   1.336       .  A
N531       Co549   2.135       .  S
H532        C555   1.082       .  S
H533        C550   1.082       .  S
N535       Co549   2.145       .  S
N536        N548   1.338       .  A
N536        N552   1.317       .  A
N536       Co545   2.139       .  S
C537        N541   1.331       .  A
C537        C551   1.502       .  S
C537        C671   1.505       .  S
C538        C557   1.475       .  S
C538        H542   1.081       .  S
N539        C550   1.328       .  A
N539       Co549   2.044       .  S
C543        N559   1.362       .  A
C543        C555   1.442       .  S
C543        C641   1.473       .  S
Co545      Cl556   2.469       .  S
N546        C557   1.339       .  A
C547        C640   1.460       .  S
Co549      Cl556   2.443       .  S
C557        C688   1.484       .  S
C560        N578   1.343       .  A
C560        C597   1.472       .  S
C560        C713   1.480       .  S
N561        N578   1.319       .  A
N561        N583   1.319       .  A
N561       Co598   2.061       .  S
C562        N587   1.339       .  A
C562        C600   1.452       .  S
C562        H607   1.082       .  S
H563        C604   1.081       .  S
C564        N588   1.354       .  A
C564        C568   1.472       .  S
C564        H593   1.081       .  S
Co565       N583   2.129       .  S
Co565       N573   2.038       .  S
Co565       N605   2.062       .  S
Co565       N581   2.116       .  S
Co565      Cl609   2.455       .  S
N566        C604   1.354       .  A
N566        N573   1.318       .  A
N566       Co567   2.125       .  S
Co567       N570   2.051       .  S
Co567       N587   2.079       .  S
Co567       N574   2.121       .  S
Co567      Cl609   2.457       .  S
C568        N606   1.339       .  A
C568        C699   1.473       .  S
N569        N576   1.317       .  A
N569        N599   1.313       .  A
N569       Co602   2.032       .  S
N570        N588   1.318       .  A
N570        N606   1.316       .  A
N571        C600   1.357       .  A
N571        N581   1.330       .  A
H572        C597   1.080       .  S
N573        N594   1.314       .  A
N574        N592   1.322       .  A
N574        N579   1.331       .  A
C575        N579   1.359       .  A
C575        C603   1.445       .  S
C575        C621   1.468       .  S
N576        C591   1.351       .  A
N576       Co598   2.118       .  S
C577        N605   1.335       .  A
C577        C580   1.447       .  S
C577        H611   1.082       .  S
C580        N601   1.359       .  A
C580        C622   1.472       .  S
N581        N587   1.323       .  A
N582        C608   1.336       .  A
N582        N584   1.324       .  A
N582       Co598   2.075       .  S
N583        C597   1.355       .  A
N584        N612   1.330       .  A
N584       Co602   2.113       .  S
H585        C608   1.082       .  S
H586        C603   1.082       .  S
N588       Co602   2.122       .  S
N589        N601   1.332       .  A
N589        N605   1.322       .  A
N589       Co598   2.123       .  S
C590        N594   1.335       .  A
C590        C604   1.473       .  S
C590        C660   1.469       .  S
C591        C610   1.473       .  S
C591        H595   1.081       .  S
N592        C603   1.334       .  A
N592       Co602   2.058       .  S
C596        N612   1.355       .  A
C596        C608   1.450       .  S
C596        C623   1.468       .  S
Co598      Cl609   2.458       .  S
N599        C610   1.334       .  A
C600        C624   1.474       .  S
Co602      Cl609   2.451       .  S
C610        C646   1.466       .  S
O613        C621   1.309       .  A
O613       Co884   2.113       .  S
O614        C622   1.309       .  A
O614       Co634   2.115   1_545  S
O615        C623   1.304       .  A
O615       Co635   2.096       .  S
O616        C624   1.308       .  A
O617        C623   1.271       .  A
O617       Co885   1.886       .  S
O618        C624   1.270       .  A
O618       Co633   1.881       .  S
O619        C622   1.269       .  A
O619       Co636   1.878       .  S
O620        C621   1.267       .  A
O625        C638   1.259       .  A
O625       Co633   1.985   1_556  S
O626        C639   1.260       .  A
O626       Co885   1.985   1_556  S
O627        C640   1.255       .  A
O628        C641   1.260       .  A
O628       Co636   1.987   1_556  S
O629        C641   1.252       .  A
O629       Co634   1.985   1_546  S
O630        C640   1.251       .  A
O630       Co884   1.980   1_556  S
O631        C638   1.250       .  A
O632        C639   1.247       .  A
O632       Co635   1.980   1_556  S
Co633       O864   2.113   1_545  S
Co633       O881   1.980   1_544  S
Co634       O868   1.886       .  S
Co634       O877   1.985   1_554  S
Co634       O637   1.999   1_554  S
Co635       O888   2.002   1_554  S
Co636       O637   2.003   1_544  S
O637       Co886   2.002   1_556  S
C642        H900   1.078       .  S
C642        C643   1.407       .  A
C642        C647   1.395       .  A
C643        C756   1.482       .  S
C643        C644   1.403       .  A
C644        C645   1.401       .  A
C644        N651   1.432       .  S
C645        H650   1.083       .  S
C645        C646   1.408       .  A
C646        C647   1.406       .  A
C647        N899   1.433       .  S
N648        C898   1.433       .  S
N648        H652   1.041       .  S
N648        H653   1.045       .  S
H649        C893   1.078   1_545  S
N651        H654   1.045       .  S
N651        H655   1.045       .  S
C656        H663   1.080   1_545  S
C656        C657   1.409       .  A
C656        C661   1.405       .  A
C657        C658   1.424       .  A
C658        C659   1.402       .  A
C658        N665   1.433       .  S
C659        H664   1.083       .  S
C659        C660   1.401       .  A
C660        C661   1.399       .  A
C661        N662   1.436       .  S
N662        H666   1.043   1_545  S
N662        H667   1.044       .  S
N665        H668   1.034       .  S
N665        H669   1.045       .  S
C670        H677   1.074       .  S
C670        C671   1.403       .  A
C670        C675   1.437       .  A
C671        C672   1.406       .  A
C672        C673   1.378       .  A
C672        N679   1.439       .  S
C673        H678   1.073       .  S
C673        C674   1.393       .  A
C674        C675   1.434       .  A
C675        N676   1.431       .  S
N676        H680   1.044       .  S
N676        H681   1.045       .  S
N679        H682   1.041       .  S
N679        H683   1.045       .  S
C684        H691   1.085       .  S
C684        C685   1.388       .  A
C684        C689   1.397       .  A
C685        C757   1.496       .  S
C685        C686   1.423       .  A
C686        C687   1.407       .  A
C686        N944   1.437   1_545  S
C687        H943   1.084       .  S
C687        C688   1.399       .  A
C688        C689   1.419       .  A
C689        N690   1.425       .  S
N690        H694   1.039       .  S
N690        H695   1.040       .  S
H692        C938   1.084       .  S
N693        C937   1.437       .  S
N693        H696   1.045       .  S
N693        H697   1.041       .  S
C698        H705   1.085       .  S
C698        C699   1.401       .  A
C698        C703   1.408       .  A
C699        C700   1.411       .  A
C700        C701   1.401       .  A
C700        N707   1.433       .  S
C701        C702   1.403       .  A
C702        C703   1.414       .  A
C703        N704   1.435       .  S
N704        H708   1.041       .  S
N704        H709   1.037       .  S
N707        H710   1.044       .  S
C712        H719   1.084       .  S
C712        C713   1.398       .  A
C712        C717   1.407       .  A
C713        C714   1.407       .  A
C714        C715   1.405       .  A
C714        N721   1.426       .  S
C715        H720   1.083       .  S
C715        C716   1.401       .  A
C716        C717   1.421       .  A
C717        N718   1.434       .  S
N718        H722   1.044       .  S
N718        H723   1.043       .  S
N721        H724   1.039       .  S
N721        H725   1.045       .  S
C726        H733   1.079       .  S
C726        C727   1.394       .  A
C726        C731   1.394       .  A
C727        C728   1.408       .  A
C728        C729   1.403       .  A
C729        H734   1.084       .  S
C729        C730   1.401       .  A
C730        C731   1.423       .  A
C731        N732   1.439       .  S
N732        H736   1.043       .  S
N732        H737   1.041       .  S
N735        H738   1.043       .  S
N735        H739   1.042       .  S
C740        H747   1.083       .  S
C740        C741   1.407       .  A
C740        C745   1.409       .  A
C741        C742   1.420       .  A
C742        C743   1.406       .  A
C743        H748   1.084       .  S
C743        C744   1.395       .  A
C744        C745   1.412       .  A
C745        N746   1.428       .  S
N746        H750   1.043       .  S
N746        H751   1.046       .  S
N749        H752   1.039       .  S
N749        H753   1.038       .  S
C754        C992   1.510       .  S
C755        C953   1.493   1_455  S
C756        C908   1.501       .  S
C757        C925   1.517   1_545  S
C758        N776   1.340       .  A
C758        C795   1.465       .  S
C758        C995   1.486       .  S
N759        N776   1.321       .  A
N759        N781   1.317       .  A
N759       Co796   2.036       .  S
C760        N785   1.325       .  A
C760        C798   1.442       .  S
C760        H805   1.082       .  S
H761        C802   1.081       .  S
C762        N786   1.352       .  A
C762        C766   1.478       .  S
C762        H791   1.076       .  S
Co763       N781   2.151       .  S
Co763       N771   2.011       .  S
Co763       N803   2.019       .  S
Co763       N779   2.107       .  S
Co763      Cl807   2.430       .  S
N764        C802   1.369       .  A
N764        N771   1.312       .  A
N764       Co765   2.159       .  S
Co765       N768   2.018       .  S
Co765       N785   2.044       .  S
Co765       N772   2.127       .  S
Co765      Cl807   2.455       .  S
C766        N804   1.334       .  A
C766        C981   1.473       .  S
N767        N774   1.320       .  A
N767        N797   1.316       .  A
N767       Co800   2.049       .  S
N768        N786   1.319       .  A
N768        N804   1.314       .  A
N769        C798   1.357       .  A
N769        N779   1.332       .  A
H770        C795   1.049       .  S
N771        N792   1.301       .  A
N772        N790   1.320       .  A
N772        N777   1.333       .  A
C773        N777   1.360       .  A
C773        C801   1.442       .  S
C773        C889   1.466       .  S
N774        C789   1.358       .  A
N774       Co796   2.140       .  S
C775        N803   1.321       .  A
C775        C778   1.432       .  S
C775        H809   1.082       .  S
C778        N799   1.367       .  A
C778        C890   1.469       .  S
N779        N785   1.318       .  A
N780        C806   1.328       .  A
N780        N782   1.320       .  A
N780       Co796   2.044       .  S
N781        C795   1.349       .  A
N782        N810   1.336       .  A
N782       Co800   2.135       .  S
H783        C806   1.082       .  S
H784        C801   1.082       .  S
N786       Co800   2.145       .  S
N787        N799   1.338       .  A
N787        N803   1.317       .  A
N787       Co796   2.139       .  S
C788        N792   1.331       .  A
C788        C802   1.502       .  S
C788        C922   1.505       .  S
C789        C808   1.475       .  S
C789        H793   1.081       .  S
N790        C801   1.328       .  A
N790       Co800   2.044       .  S
C794        N810   1.362       .  A
C794        C806   1.442       .  S
C794        C892   1.473       .  S
Co796      Cl807   2.469       .  S
N797        C808   1.339       .  A
C798        C891   1.460       .  S
Co800      Cl807   2.443       .  S
C808        C939   1.484       .  S
C811        N829   1.343       .  A
C811        C848   1.472       .  S
C811        C964   1.480       .  S
N812        N829   1.319       .  A
N812        N834   1.319       .  A
N812       Co849   2.061       .  S
C813        N838   1.339       .  A
C813        C851   1.452       .  S
C813        H858   1.082       .  S
H814        C855   1.081       .  S
C815        N839   1.354       .  A
C815        C819   1.472       .  S
C815        H844   1.081       .  S
Co816       N834   2.129       .  S
Co816       N824   2.038       .  S
Co816       N856   2.062       .  S
Co816       N832   2.116       .  S
Co816      Cl860   2.455       .  S
N817        C855   1.354       .  A
N817        N824   1.318       .  A
N817       Co818   2.125       .  S
Co818       N821   2.051       .  S
Co818       N838   2.079       .  S
Co818       N825   2.121       .  S
Co818      Cl860   2.457       .  S
C819        N857   1.339       .  A
C819        C950   1.473       .  S
N820        N827   1.317       .  A
N820        N850   1.313       .  A
N820       Co853   2.032       .  S
N821        N839   1.318       .  A
N821        N857   1.316       .  A
N822        C851   1.357       .  A
N822        N832   1.330       .  A
H823        C848   1.080       .  S
N824        N845   1.314       .  A
N825        N843   1.322       .  A
N825        N830   1.331       .  A
C826        N830   1.359       .  A
C826        C854   1.445       .  S
C826        C872   1.468       .  S
N827        C842   1.351       .  A
N827       Co849   2.118       .  S
C828        N856   1.335       .  A
C828        C831   1.447       .  S
C828        H862   1.082       .  S
C831        N852   1.359       .  A
C831        C873   1.472       .  S
N832        N838   1.323       .  A
N833        C859   1.336       .  A
N833        N835   1.324       .  A
N833       Co849   2.075       .  S
N834        C848   1.355       .  A
N835        N863   1.330       .  A
N835       Co853   2.113       .  S
H836        C859   1.082       .  S
H837        C854   1.082       .  S
N839       Co853   2.122       .  S
N840        N852   1.332       .  A
N840        N856   1.322       .  A
N840       Co849   2.123       .  S
C841        N845   1.335       .  A
C841        C855   1.473       .  S
C841        C911   1.469       .  S
C842        C861   1.473       .  S
C842        H846   1.081       .  S
N843        C854   1.334       .  A
N843       Co853   2.058       .  S
C847        N863   1.355       .  A
C847        C859   1.450       .  S
C847        C874   1.468       .  S
Co849      Cl860   2.458       .  S
N850        C861   1.334       .  A
C851        C875   1.474       .  S
Co853      Cl860   2.451       .  S
C861        C897   1.466       .  S
O864        C872   1.309       .  A
O865        C873   1.309       .  A
O865       Co885   2.115       .  S
O866        C874   1.304       .  A
O866       Co886   2.096       .  S
O867        C875   1.308       .  A
O868        C874   1.271       .  A
O869        C875   1.270       .  A
O869       Co884   1.881       .  S
O870        C873   1.269       .  A
O870       Co887   1.878       .  S
O871        C872   1.267       .  A
O876        C889   1.259       .  A
O876       Co884   1.985   1_556  S
O877        C890   1.260       .  A
O878        C891   1.255       .  A
O879        C892   1.260       .  A
O879       Co887   1.987   1_556  S
O880        C892   1.252       .  A
O880       Co885   1.985   1_556  S
O881        C891   1.251       .  A
O882        C889   1.250       .  A
O883        C890   1.247       .  A
O883       Co886   1.980   1_556  S
Co885       O888   1.999   1_554  S
Co887       O888   2.003   1_554  S
C893        C894   1.407       .  A
C893        C898   1.395       .  A
C894        C895   1.403       .  A
C895        C896   1.401       .  A
C895        N902   1.432       .  S
C896        H901   1.083       .  S
C896        C897   1.408       .  A
C897        C898   1.406       .  A
N899        H903   1.041       .  S
N899        H904   1.045       .  S
N902        H905   1.045       .  S
N902        H906   1.045       .  S
C907        H914   1.080       .  S
C907        C908   1.409       .  A
C907        C912   1.405       .  A
C908        C909   1.424       .  A
C909        C910   1.402       .  A
C909        N916   1.433       .  S
C910        H915   1.083       .  S
C910        C911   1.401       .  A
C911        C912   1.399       .  A
C912        N913   1.436       .  S
N913        H917   1.043       .  S
N913        H918   1.044       .  S
N916        H919   1.034       .  S
N916        H920   1.045       .  S
C921        H928   1.074       .  S
C921        C922   1.403       .  A
C921        C926   1.437       .  A
C922        C923   1.406       .  A
C923        C924   1.378       .  A
C923        N930   1.439       .  S
C924        H929   1.073       .  S
C924        C925   1.393       .  A
C925        C926   1.434       .  A
C926        N927   1.431       .  S
N927        H931   1.044       .  S
N927        H932   1.045   1_565  S
N930        H933   1.041   1_565  S
N930        H934   1.045   1_565  S
C935        H942   1.085       .  S
C935        C936   1.388       .  A
C935        C940   1.397       .  A
C936        C937   1.423       .  A
C937        C938   1.407       .  A
C938        C939   1.399       .  A
C939        C940   1.419       .  A
C940        N941   1.425       .  S
N941        H945   1.039       .  S
N941        H946   1.040       .  S
N944        H947   1.045   1_565  S
N944        H948   1.041       .  S
C949        H956   1.085       .  S
C949        C950   1.401       .  A
C949        C954   1.408       .  A
C950        C951   1.411       .  A
C951        C952   1.401       .  A
C951        N958   1.433       .  S
C952        C953   1.403       .  A
C953        C954   1.414       .  A
C954        N955   1.435       .  S
N955        H959   1.041       .  S
N955        H960   1.037       .  S
N958        H961   1.044       .  S
C963        H970   1.084       .  S
C963        C964   1.398       .  A
C963        C968   1.407       .  A
C964        C965   1.407       .  A
C965        C966   1.405       .  A
C965        N972   1.426       .  S
C966        H971   1.083       .  S
C966        C967   1.401       .  A
C967        C968   1.421       .  A
C968        N969   1.434       .  S
N969        H973   1.044       .  S
N969        H974   1.043       .  S
N972        H975   1.039       .  S
N972        H976   1.045       .  S
C977        H984   1.079       .  S
C977        C978   1.394       .  A
C977        C982   1.394       .  A
C978        C979   1.408       .  A
C979        C980   1.403       .  A
C980        H985   1.084       .  S
C980        C981   1.401       .  A
C981        C982   1.423       .  A
C982        N983   1.439       .  S
N983        H987   1.043       .  S
N983        H988   1.041       .  S
N986        H989   1.043       .  S
N986        H990   1.042       .  S
C991        H998   1.083       .  S
C991        C992   1.407       .  A
C991        C996   1.409       .  A
C992        C993   1.420       .  A
C993        C994   1.406       .  A
C994        H999   1.084       .  S
C994        C995   1.395       .  A
C995        C996   1.412       .  A
C996        N997   1.428       .  S
N997       H1001   1.043       .  S
N997       H1002   1.046       .  S
N1000      H1003   1.039       .  S
N1000      H1004   1.038       .  S
