geometry optimzed in LAMMPS
_audit_creation_date              2020-11-30 
_audit_creation_method            'lammps2cif' 
_symmetry_space_group_name_H-M    'P1' 
_symmetry_Int_Tables_number       1 
_symmetry_cell_setting            triclinic 
loop_ 
_symmetry_equiv_pos_as_xyz 
  x,y,z 
_cell_length_a                    46.04064566223364 
_cell_length_b                    33.22032542202671 
_cell_length_c                    28.40890170117639 
_cell_angle_alpha                 94.02425184861981 
_cell_angle_beta                  89.98156350022653 
_cell_angle_gamma                 87.52227020395684 
loop_ 
_atom_site_label 
_atom_site_type_symbol 
_atom_site_fract_x 
_atom_site_fract_y 
_atom_site_fract_z 
_atom_site_charge 
N1          N  0.78826322  0.07857193  0.68838301    -0.27160
N2          N  0.79646148  0.08053669  0.73296744    -0.35020
C3          C  0.77247981  0.08264164  0.76030185     0.01180
C4          C  0.74836838  0.08209904  0.73099471     0.07210
C5          C  0.75920361  0.07953660  0.68576752    -0.05890
H6          H  0.77259596  0.08400561  0.79845090     0.07880
H7          H  0.74699913  0.07720431  0.65323584     0.09080
Cu8        Cu  0.84022729  0.07950132  0.75184774     0.44170
Cu9        Cu  0.81627618  0.07047671  0.63291581     0.41990
Cu10       Cu  0.89108675  0.05530086  0.64955569     0.43880
N11         N  0.88548110  0.08013290  0.75497068    -0.34540
N12         N  0.90299147  0.07092710  0.71846053    -0.28800
C13         C  0.93047964  0.07658699  0.73176293    -0.04900
C14         C  0.93066855  0.09056890  0.77882093     0.07320
C15         C  0.90167978  0.09208569  0.79252207     0.01110
H16         H  0.94884305  0.07152669  0.70807313     0.08770
H17         H  0.89281855  0.10275675  0.82661044     0.07840
N18         N  0.87224950  0.04619141  0.58386339    -0.35990
N19         N  0.84396691  0.05236681  0.57910835    -0.28170
C20         C  0.83625346  0.04214071  0.53478348    -0.03410
C21         C  0.86090536  0.02902739  0.50989705     0.05200
C22         C  0.88360237  0.03217246  0.54178414     0.03290
H23         H  0.81412483  0.04345092  0.52204295     0.08400
H24         H  0.90624321  0.02344005  0.53545642     0.07230
N25         N  0.79077739  0.08689994  0.27858922    -0.27160
N26         N  0.79903920  0.08836534  0.23418443    -0.35020
C27         C  0.77504084  0.08757205  0.20695784     0.01180
C28         C  0.75090125  0.08573060  0.23603627     0.07210
C29         C  0.76177867  0.08534307  0.28103933    -0.05990
H30         H  0.77509262  0.08910313  0.16905473     0.07880
H31         H  0.74954928  0.08483431  0.31349007     0.09080
Cu32       Cu  0.84282726  0.09293348  0.21460739     0.44170
Cu33       Cu  0.81777172  0.09040161  0.33548178     0.41990
Cu34       Cu  0.89109027  0.10169848  0.32002914     0.43880
N35         N  0.88838822  0.09615602  0.21216739    -0.34540
N36         N  0.90458988  0.09800193  0.25064062    -0.28800
C37         C  0.93250030  0.09994249  0.23867093    -0.04900
C38         C  0.93475888  0.09989734  0.19007849     0.07320
C39         C  0.90615682  0.09726525  0.17432219     0.01110
H40         H  0.94963040  0.10214209  0.26452247     0.08770
H41         H  0.89871162  0.09724029  0.13822719     0.07840
N42         N  0.87267001  0.99706196  0.38625735    -0.35990
N43         N  0.84459241  0.10348427  0.39100711    -0.28170
C44         C  0.83670876  0.00169625  0.43578966    -0.03410
C45         C  0.86109193  0.01277123  0.46077186     0.05200
C46         C  0.88374652  0.00934501  0.42850746     0.03290
H47         H  0.81459518  0.00181858  0.44866045     0.08400
H48         H  0.90602813  0.01733159  0.43458979     0.07230
C49         C  0.98033124  0.00886775  0.88210941     0.03260
C50         C  0.95579031  0.10811851  0.85573582    -0.12890
C51         C  0.95632127  0.10394400  0.80642504     0.00760
C52         C  0.98183134  0.11160197  0.78281174    -0.11410
C53         C  0.00691621  0.01190179  0.80716830     0.03250
C54         C  0.00574470  0.01721341  0.85671590    -0.10830
H55         H  0.93611671  0.10132743  0.87280100     0.08850
H56         H  0.98204466  0.10822924  0.74493121     0.06380
H57         H  0.02482939  0.02732457  0.87544457     0.06220
C58         C  0.98854532  0.00001248  0.08863607     0.03260
C59         C  0.96299700  0.99135790  0.11350235    -0.12890
C60         C  0.96195785  0.99440154  0.16310542     0.00760
C61         C  0.98728614  0.00407586  0.18796002    -0.11410
C62         C  0.01304233  0.01143591  0.16480648     0.03250
C63         C  0.01339368  0.00981978  0.11550425    -0.10830
H64         H  0.94377255  0.98238167  0.09436689     0.08850
H65         H  0.98724174  0.00565691  0.22587170     0.06380
H66         H  0.03325279  0.01674730  0.09904875     0.06220
N67         N  0.17964925  0.00954700  0.69444394    -0.27160
N68         N  0.17040077  0.01478422  0.73857833    -0.35020
C69         C  0.19356562  0.02150153  0.76653757     0.01180
C70         C  0.21817305  0.02066685  0.73816799     0.07210
C71         C  0.20850275  0.01307035  0.69281455    -0.05890
H72         H  0.19259327  0.02643934  0.80455062     0.07880
H73         H  0.22149152  0.12031172  0.66095944     0.09080
Cu74       Cu  0.12642682  0.01299511  0.75692653     0.44170
Cu75       Cu  0.15401047  0.10644212  0.63789278     0.41990
Cu76       Cu  0.07925733  0.11078737  0.65053201     0.43880
N77         N  0.08088144  0.01418273  0.75813294    -0.34540
N78         N  0.06496921  0.12244215  0.71937240    -0.28800
C79         C  0.03684525  0.12367294  0.73115199    -0.04900
C80         C  0.03424579  0.01564383  0.77989769     0.07320
C81         C  0.06281081  0.01686947  0.79587706     0.01110
H82         H  0.01979889  0.12076895  0.70522490     0.08770
H83         H  0.07002365  0.01793411  0.83214378     0.07840
N84         N  0.09874433  0.09197136  0.58680466    -0.35990
N85         N  0.12731503  0.08971819  0.58360851    -0.28170
C86         C  0.13531607  0.07478394  0.54047967    -0.03410
C87         C  0.11051670  0.06737895  0.51480410     0.05200
C88         C  0.08750520  0.07874818  0.54499560     0.03290
H89         H  0.15762470  0.06996028  0.52876979     0.08400
H90         H  0.06455460  0.07683054  0.53753161     0.07230
N91         N  0.18244692  0.00443946  0.28528609    -0.27160
N92         N  0.17412665  0.00671587  0.24102370    -0.35020
C93         C  0.19803618  0.00648968  0.21365943     0.01180
C94         C  0.22233384  0.00415482  0.24242767     0.07210
C95         C  0.21158414  0.00280974  0.28751141    -0.05890
H96         H  0.19773910  0.12060944  0.17599738     0.07880
H97         H  0.22392538  0.00259093  0.31988819     0.09080
Cu98       Cu  0.13040598  0.01369460  0.22220438     0.44170
Cu99       Cu  0.15446017  0.00978136  0.34157739     0.41990
Cu100      Cu  0.08105027  0.04040519  0.32398601     0.43880
N101        N  0.08522537  0.02167359  0.21770225    -0.34540
N102        N  0.06817392  0.03220935  0.25441481    -0.28800
C103        C  0.04037292  0.03227320  0.24058112    -0.04900
C104        C  0.03944169  0.02067169  0.19287440     0.07320
C105        C  0.06839202  0.01456954  0.17941073     0.01110
H106        H  0.02220737  0.03887595  0.26438352     0.08770
H107        H  0.07659001  0.11463917  0.14501417     0.07840
N108        N  0.09929154  0.04019866  0.39034472    -0.35990
N109        N  0.12665771  0.02803909  0.39585501    -0.28170
C110        C  0.13404040  0.03423957  0.44116828    -0.03410
C111        C  0.11014230  0.05100796  0.46568954     0.05200
C112        C  0.08825523  0.05419664  0.43260954     0.03290
H113        H  0.15568454  0.02866948  0.45471038     0.08400
H114        H  0.06670770  0.06798604  0.43818882     0.07230
N115        N  0.67792912  0.07591526  0.78556978    -0.27160
N116        N  0.66968734  0.08095944  0.74178496    -0.35020
C117        C  0.69358172  0.08455002  0.71538129     0.01180
C118        C  0.71769687  0.08178456  0.74442267     0.07210
C119        C  0.70695867  0.07638481  0.78857333    -0.05890
H120        H  0.69341640  0.08851256  0.67791338     0.07880
H121        H  0.71927921  0.07186487  0.82032827     0.09080
Cu122      Cu  0.62612426  0.08184770  0.72183475     0.44170
Cu123      Cu  0.65025310  0.06529077  0.83877389     0.41990
Cu124      Cu  0.57577664  0.05918516  0.82023119     0.43880
N125        N  0.58092063  0.08206237  0.71716770    -0.34540
N126        N  0.56370014  0.07354175  0.75216954    -0.28800
C127        C  0.53602842  0.07811481  0.73838772    -0.04900
C128        C  0.53531269  0.09070339  0.69279071     0.07320
C129        C  0.56432534  0.09250946  0.68031455     0.01110
H130        H  0.51772347  0.07326185  0.76082663     0.08770
H131        H  0.57276142  0.10262748  0.64782776     0.07840
N132        N  0.59450933  0.04737553  0.88508372    -0.35990
N133        N  0.62287788  0.04950293  0.89002104    -0.28170
C134        C  0.63074679  0.03919869  0.93290744    -0.03410
C135        C  0.60616525  0.03031592  0.95706993     0.05200
C136        C  0.58329732  0.03598768  0.92589640     0.03290
H137        H  0.65291983  0.03834577  0.94545579     0.08400
H138        H  0.56055002  0.03123022  0.93195948     0.07230
N139        N  0.67977907  0.08928225  0.18122413    -0.27160
N140        N  0.67181292  0.09091753  0.22604808    -0.35020
C141        C  0.69597992  0.08897046  0.25267030     0.01180
C142        C  0.72002315  0.08623969  0.22287146     0.07210
C143        C  0.70888419  0.08647425  0.17796608    -0.05890
H144        H  0.69606032  0.09056604  0.29082352     0.07880
H145        H  0.72097971  0.08576587  0.14525269     0.09080
Cu146      Cu  0.62826926  0.09853385  0.24760064     0.44170
Cu147      Cu  0.65173492  0.09469200  0.12589811     0.41990
Cu148      Cu  0.57806950  0.11484156  0.14616651     0.43880
N149        N  0.58310462  0.10839864  0.25333080    -0.34540
N150        N  0.56606939  0.11373116  0.21657492    -0.28800
C151        C  0.53863482  0.12036015  0.23148376    -0.04900
C152        C  0.53767264  0.11939057  0.28024140     0.07320
C153        C  0.56650138  0.11163606  0.29283416     0.01110
H154        H  0.52096624  0.01527265  0.20767905     0.08770
H155        H  0.57494002  0.10924338  0.32808803     0.07840
N156        N  0.59573657  0.00580002  0.07920509    -0.35990
N157        N  0.62381138  0.10894228  0.07289344    -0.28170
C158        C  0.63107551  0.00412647  0.02855946    -0.03410
C159        C  0.60636634  0.01662278  0.00521137     0.05200
C160        C  0.58411115  0.01721367  0.03826491     0.03290
H161        H  0.65303389  0.00101035  0.01486900     0.08400
H162        H  0.56167708  0.02714229  0.03366881     0.07230
C163        C  0.48168307  0.00778338  0.59508001     0.03260
C164        C  0.50759378  0.99474650  0.61789352    -0.12890
C165        C  0.50881283  0.99320817  0.66723109     0.00760
C166        C  0.48406038  0.00479255  0.69390742    -0.11410
C167        C  0.45772322  0.01576323  0.67315209     0.03250
C168        C  0.45683223  0.01804360  0.62388523    -0.10830
H169        H  0.52678923  0.98527704  0.59738946     0.08850
H170        H  0.48545320  0.00493280  0.73165839     0.06380
H171        H  0.43662543  0.02785283  0.60884670     0.06220
C172        C  0.48707674  0.02553166  0.38867163     0.03260
C173        C  0.51223171  0.01595690  0.36029762    -0.12890
C174        C  0.51133883  0.01652810  0.31082511     0.00760
C175        C  0.48470653  0.02515212  0.28943615    -0.11410
C176        C  0.45948742  0.03521349  0.31558130     0.03250
C177        C  0.46081774  0.03598233  0.36507419    -0.10830
H178        H  0.53264319  0.00762962  0.37576476     0.08850
H179        H  0.48322687  0.02332174  0.25159045     0.06380
H180        H  0.44126801  0.04484033  0.38496633     0.06220
N181        N  0.29213663  0.01741056  0.18769455    -0.27160
N182        N  0.30046533  0.01559915  0.23203968    -0.35020
C183        C  0.27698815  0.00922281  0.25839213     0.01180
C184        C  0.25295932  0.00709894  0.22896060     0.07210
C185        C  0.26343032  0.01231203  0.18448241    -0.05890
H186        H  0.27722203  0.00770135  0.29629510     0.07880
H187        H  0.25097480  0.01399408  0.15235297     0.09080
Cu188      Cu  0.34313680  0.02538809  0.25385153     0.44170
Cu189      Cu  0.31878738  0.03136588  0.13387723     0.41990
Cu190      Cu  0.39051264  0.05795582  0.15802930     0.43880
N191        N  0.38694985  0.03869008  0.26206283    -0.34540
N192        N  0.40310474  0.05093392  0.22767316    -0.28800
C193        C  0.43041111  0.05452749  0.24315752    -0.04900
C194        C  0.43212170  0.04347452  0.28931223     0.07320
C195        C  0.40394679  0.03398340  0.30029726     0.01110
H196        H  0.44807119  0.06296184  0.22128367     0.08770
H197        H  0.39678702  0.02177874  0.33244673     0.07840
N198        N  0.37260819  0.06117347  0.09095391    -0.35990
N199        N  0.34539821  0.05162846  0.08349280    -0.28170
C200        C  0.33790137  0.05885359  0.03931132    -0.03410
C201        C  0.36159860  0.07327135  0.01710513     0.05200
C202        C  0.38346198  0.07425565  0.05078054     0.03290
H203        H  0.31649100  0.05442305  0.02472352     0.08400
H204        H  0.40501020  0.08541477  0.04709665     0.07230
N205        N  0.28809779  0.02254717  0.79589252    -0.27160
N206        N  0.29655065  0.02568138  0.75191818    -0.35020
C207        C  0.27278274  0.02669275  0.72436391     0.01180
C208        C  0.24850653  0.02424119  0.75282717     0.07210
C209        C  0.25904339  0.02180013  0.79784055    -0.05890
H210        H  0.27319280  0.02809033  0.68644784     0.07880
H211        H  0.24669816  0.01770230  0.82942508     0.09080
Cu212      Cu  0.34032439  0.02617365  0.73308013     0.44170
Cu213      Cu  0.31572904  0.01379861  0.85069938     0.41990
Cu214      Cu  0.39053126  0.01270287  0.83604162     0.43880
N215        N  0.38561657  0.02562899  0.72988044    -0.34540
N216        N  0.40271809  0.02220928  0.76697509    -0.28800
C217        C  0.43044170  0.02086517  0.75262545    -0.04900
C218        C  0.43139946  0.02281352  0.70391073     0.07320
C219        C  0.40235272  0.02615305  0.69086448     0.01110
H220        H  0.44836076  0.01659037  0.77649887     0.08770
H221        H  0.39387674  0.02680014  0.65542212     0.07840
N222        N  0.37206253  0.99758486  0.89917752    -0.35990
N223        N  0.34352048  0.99769979  0.90276702    -0.28170
C224        C  0.33604988  0.09628999  0.94458595    -0.03410
C225        C  0.36106940  0.08803351  0.96940250     0.05200
C226        C  0.38374573  0.09635124  0.93971154     0.03290
H227        H  0.31386142  0.09359313  0.95604013     0.08400
H228        H  0.40678195  0.09294383  0.94663546     0.07230
C229        C  0.48190286  0.01223542  0.54209444    -0.05990
C230        C  0.50739645  0.02555264  0.52183037    -0.17120
C231        C  0.51023112  0.03055809  0.47334224     0.11210
C232        C  0.48676008  0.02200137  0.44190469    -0.05920
C233        C  0.46129981  0.11970339  0.46224962    -0.17150
C234        C  0.45836737  0.11513191  0.51077077     0.11240
S235        S  0.54483404  0.93713819  0.45632666    -0.32120
S236        S  0.42358049  0.09821103  0.52801386    -0.32120
H237        H  0.43508960  0.07606389  0.56360159     0.29250
H238        H  0.53310490  0.95886349  0.42053069     0.29240
H239        H  0.52555925  0.03333849  0.54432849     0.19830
H240        H  0.44324477  0.11126506  0.43985201     0.19840
C241        C  0.98127832  0.00803986  0.93531906    -0.05990
C242        C  0.00761398  0.10574370  0.95531285    -0.17120
C243        C  0.01134143  0.10289431  0.00386595     0.11210
C244        C  0.98771116  0.00205351  0.03554050    -0.05920
C245        C  0.96145673  0.01582096  0.01560876    -0.17150
C246        C  0.95762066  0.01832835  0.96700227     0.11240
S247        S  0.04723570  0.08527798  0.02008907    -0.32120
S248        S  0.92137764  0.03480567  0.95098363    -0.32120
H249        H  0.92943029  0.05151103  0.91019841     0.29250
H250        H  0.03766806  0.06560011  0.05797086     0.29240
H251        H  0.02576435  0.09573045  0.93259824     0.19830
H252        H  0.94333336  0.02583796  0.03837160     0.19840
N253        N  0.78826318  0.18968299  0.68838284    -0.27160
N254        N  0.79646147  0.19164763  0.73296725    -0.35020
C255        C  0.77247982  0.19375249  0.76030169     0.01180
C256        C  0.74836836  0.19320995  0.73099461     0.07210
C257        C  0.75920357  0.19064765  0.68576739    -0.05890
H258        H  0.77259600  0.19511636  0.79845074     0.07880
H259        H  0.74699906  0.18831544  0.65323573     0.09080
Cu260      Cu  0.84022728  0.19061222  0.75184750     0.44170
Cu261      Cu  0.81627613  0.18158792  0.63291558     0.41990
Cu262      Cu  0.89108673  0.16641189  0.64955548     0.43880
N263        N  0.88548108  0.19124379  0.75497047    -0.34540
N264        N  0.90299146  0.18203804  0.71846032    -0.28800
C265        C  0.93047962  0.18769792  0.73176275    -0.04900
C266        C  0.93066853  0.20167979  0.77882077     0.07320
C267        C  0.90167975  0.20319655  0.79252188     0.01110
H268        H  0.94884304  0.18263767  0.70807294     0.08770
H269        H  0.89281851  0.21386760  0.82661025     0.07840
N270        N  0.87224945  0.15730252  0.58386319    -0.35990
N271        N  0.84396687  0.16347799  0.57910814    -0.28170
C272        C  0.83625342  0.15325187  0.53478328    -0.03410
C273        C  0.86090531  0.14013846  0.50989688     0.05200
C274        C  0.88360232  0.14328350  0.54178396     0.03290
H275        H  0.81412479  0.15456211  0.52204274     0.08400
H276        H  0.90624315  0.13455100  0.53545627     0.07230
N277        N  0.79077683  0.19801078  0.27858970    -0.27160
N278        N  0.79903850  0.19947637  0.23418487    -0.35020
C279        C  0.77504004  0.19868318  0.20695851     0.01180
C280        C  0.75090055  0.19684162  0.23603714     0.07210
C281        C  0.76177812  0.19645392  0.28104007    -0.05990
H282        H  0.77509168  0.20021438  0.16905541     0.07880
H283        H  0.74954885  0.19594497  0.31349091     0.09080
Cu284      Cu  0.84282652  0.20404461  0.21460750     0.44170
Cu285      Cu  0.81777135  0.20151209  0.33548197     0.41990
Cu286      Cu  0.89108979  0.21280894  0.32002905     0.43880
N287        N  0.88838752  0.20726705  0.21216727    -0.34540
N288        N  0.90458924  0.20911259  0.25064044    -0.28800
C289        C  0.93249964  0.21105313  0.23867070    -0.04900
C290        C  0.93475817  0.21100840  0.19007829     0.07320
C291        C  0.90615608  0.20837653  0.17432205     0.01110
H292        H  0.94962979  0.21325239  0.26452220     0.08770
H293        H  0.89871084  0.20835191  0.13822709     0.07840
N294        N  0.87266994  0.10817281  0.38625724    -0.35990
N295        N  0.84459204  0.21459487  0.39100716    -0.28170
C296        C  0.83670870  0.11280721  0.43578955    -0.03410
C297        C  0.86109187  0.12388220  0.46077173     0.05200
C298        C  0.88374646  0.12045591  0.42850733     0.03290
H299        H  0.81459512  0.11292960  0.44866035     0.08400
H300        H  0.90602807  0.12844249  0.43458963     0.07230
C301        C  0.98033132  0.11997876  0.88210937     0.03260
C302        C  0.95579020  0.21922952  0.85573568    -0.12890
C303        C  0.95632121  0.21505494  0.80642490     0.00760
C304        C  0.98183130  0.22271293  0.78281166    -0.11410
C305        C  0.00691626  0.12301285  0.80716823     0.03250
C306        C  0.00574478  0.12832444  0.85671585    -0.10830
H307        H  0.93611660  0.21243843  0.87280082     0.08850
H308        H  0.98204468  0.21934006  0.74493114     0.06380
H309        H  0.02482947  0.13843557  0.87544450     0.06220
C310        C  0.98854532  0.11112348  0.08863606     0.03260
C311        C  0.96299698  0.10246896  0.11350230    -0.12890
C312        C  0.96195779  0.10551266  0.16310538     0.00760
C313        C  0.98728606  0.11518701  0.18796001    -0.11410
C314        C  0.01304229  0.12254696  0.16480651     0.03250
C315        C  0.01339368  0.12093076  0.11550428    -0.10830
H316        H  0.94377254  0.09349271  0.09436682     0.08850
H317        H  0.98724162  0.11676815  0.22587170     0.06380
H318        H  0.03325282  0.12785823  0.09904882     0.06220
N319        N  0.17964925  0.12065819  0.69444363    -0.27160
N320        N  0.17040078  0.12589537  0.73857803    -0.35020
C321        C  0.19356565  0.13261262  0.76653725     0.01180
C322        C  0.21817307  0.13177794  0.73816767     0.07210
C323        C  0.20850275  0.12418151  0.69281422    -0.05890
H324        H  0.19259332  0.13755037  0.80455031     0.07880
H325        H  0.22149143  0.23142303  0.66095934     0.09080
Cu326      Cu  0.12642684  0.12410624  0.75692628     0.44170
Cu327      Cu  0.15401034  0.21755360  0.63789259     0.41990
Cu328      Cu  0.07925719  0.22189883  0.65053192     0.43880
N329        N  0.08088147  0.12529381  0.75813276    -0.34540
N330        N  0.06496909  0.23355356  0.71937235    -0.28800
C331        C  0.03684513  0.23478439  0.73115197    -0.04900
C332        C  0.03424583  0.12675488  0.77989757     0.07320
C333        C  0.06281086  0.12798057  0.79587691     0.01110
H334        H  0.01979875  0.23188057  0.70522489     0.08770
H335        H  0.07002372  0.12904527  0.83214361     0.07840
N336        N  0.09874418  0.20308266  0.58680460    -0.35990
N337        N  0.12731488  0.20082951  0.58360842    -0.28170
C338        C  0.13531591  0.18589506  0.54047966    -0.03410
C339        C  0.11051654  0.17848994  0.51480415     0.05200
C340        C  0.08750504  0.18985928  0.54499562     0.03290
H341        H  0.15762454  0.18107136  0.52876977     0.08400
H342        H  0.06455444  0.18794158  0.53753167     0.07230
N343        N  0.18244689  0.11555051  0.28528636    -0.27160
N344        N  0.17412666  0.11782697  0.24102395    -0.35020
C345        C  0.19803622  0.11760107  0.21365979     0.01180
C346        C  0.22233386  0.11526636  0.24242812     0.07210
C347        C  0.21158410  0.11392105  0.28751179    -0.05890
H348        H  0.19773837  0.23172156  0.17599939     0.07880
H349        H  0.22392530  0.11370231  0.31988862     0.09080
Cu350      Cu  0.13040598  0.12480549  0.22220450     0.44170
Cu351      Cu  0.15446007  0.12089211  0.34157758     0.41990
Cu352      Cu  0.08105020  0.15151599  0.32398609     0.43880
N353        N  0.08522535  0.13278446  0.21770233    -0.34540
N354        N  0.06817389  0.14332022  0.25441488    -0.28800
C355        C  0.04037289  0.14338412  0.24058118    -0.04900
C356        C  0.03944166  0.13178266  0.19287446     0.07320
C357        C  0.06839199  0.12568047  0.17941079     0.01110
H358        H  0.02220734  0.14998688  0.26438358     0.08770
H359        H  0.07658939  0.22575012  0.14501494     0.07840
N360        N  0.09929141  0.15130938  0.39034484    -0.35990
N361        N  0.12665757  0.13914980  0.39585517    -0.28170
C362        C  0.13404024  0.14535032  0.44116845    -0.03410
C363        C  0.11014214  0.16211876  0.46568966     0.05200
C364        C  0.08825508  0.16530741  0.43260962     0.03290
H365        H  0.15568438  0.13978028  0.45471057     0.08400
H366        H  0.06670757  0.17909688  0.43818885     0.07230
N367        N  0.67792915  0.18702616  0.78556985    -0.27160
N368        N  0.66968733  0.19207040  0.74178506    -0.35020
C369        C  0.69358169  0.19566098  0.71538133     0.01180
C370        C  0.71769687  0.19289543  0.74442262     0.07210
C371        C  0.70695871  0.18749565  0.78857330    -0.05890
H372        H  0.69341632  0.19962358  0.67791344     0.07880
H373        H  0.71927928  0.18297568  0.82032821     0.09080
Cu374      Cu  0.62612423  0.19295881  0.72183494     0.44170
Cu375      Cu  0.65025320  0.17640172  0.83877409     0.41990
Cu376      Cu  0.57577673  0.17029623  0.82023145     0.43880
N377        N  0.58092059  0.19317353  0.71716803    -0.34540
N378        N  0.56370015  0.18465287  0.75216991    -0.28800
C379        C  0.53602841  0.18922593  0.73838823    -0.04900
C380        C  0.53531261  0.20181456  0.69279125     0.07320
C381        C  0.56432523  0.20362066  0.68031497     0.01110
H382        H  0.51772349  0.18437294  0.76082720     0.08770
H383        H  0.57276125  0.21373869  0.64782815     0.07840
N384        N  0.59450941  0.15848660  0.88508394    -0.35990
N385        N  0.62287795  0.16061397  0.89002129    -0.28170
C386        C  0.63074683  0.15030972  0.93290770    -0.03410
C387        C  0.60616526  0.14142696  0.95707014     0.05200
C388        C  0.58329736  0.14709874  0.92589659     0.03290
H389        H  0.65291986  0.14945677  0.94545608     0.08400
H390        H  0.56055005  0.14234129  0.93195961     0.07230
N391        N  0.67977827  0.20039280  0.18122538    -0.27160
N392        N  0.67181217  0.20202841  0.22604937    -0.35020
C393        C  0.69597922  0.20008156  0.25267153     0.01180
C394        C  0.72002241  0.19735061  0.22287256     0.07210
C395        C  0.70888338  0.19758482  0.17796722    -0.05890
H396        H  0.69605969  0.20167744  0.29082475     0.07880
H397        H  0.72097885  0.19687622  0.14525376     0.09080
Cu398      Cu  0.62826848  0.20964491  0.24760181     0.44170
Cu399      Cu  0.65173412  0.20580224  0.12589939     0.41990
Cu400      Cu  0.57806872  0.22595197  0.14616734     0.43880
N401        N  0.58310380  0.21950974  0.25333171    -0.34540
N402        N  0.56606856  0.22484192  0.21657575    -0.28800
C403        C  0.53863399  0.23147106  0.23148456    -0.04900
C404        C  0.53767183  0.23050201  0.28024224     0.07320
C405        C  0.56650056  0.22274756  0.29283507     0.01110
H406        H  0.52096588  0.12638301  0.20767904     0.08770
H407        H  0.57493922  0.22035527  0.32808898     0.07840
N408        N  0.59573637  0.11691070  0.07920512    -0.35990
N409        N  0.62381079  0.22005276  0.07289460    -0.28170
C410        C  0.63107543  0.11523754  0.02855974    -0.03410
C411        C  0.60636629  0.12773376  0.00521154     0.05200
C412        C  0.58411102  0.12832440  0.03826492     0.03290
H413        H  0.65303385  0.11212160  0.01486942     0.08400
H414        H  0.56167693  0.13825287  0.03366870     0.07230
C415        C  0.48168316  0.11889465  0.59508017     0.03260
C416        C  0.50759386  0.10585771  0.61789368    -0.12890
C417        C  0.50881288  0.10431927  0.66723125     0.00760
C418        C  0.48406041  0.11590360  0.69390756    -0.11410
C419        C  0.45772329  0.12687442  0.67315222     0.03250
C420        C  0.45683232  0.12915484  0.62388538    -0.10830
H421        H  0.52678932  0.09638827  0.59738963     0.08850
H422        H  0.48545317  0.11604370  0.73165853     0.06380
H423        H  0.43662553  0.13896409  0.60884687     0.06220
C424        C  0.48707675  0.13664342  0.38867192     0.03260
C425        C  0.51223162  0.12706839  0.36029778    -0.12890
C426        C  0.51133868  0.12763979  0.31082529     0.00760
C427        C  0.48470643  0.13626445  0.28943649    -0.11410
C428        C  0.45948739  0.14632595  0.31558181     0.03250
C429        C  0.46081777  0.14709448  0.36507467    -0.10830
H430        H  0.53264305  0.11874075  0.37576484     0.08850
H431        H  0.48322674  0.13443451  0.25159080     0.06380
H432        H  0.44126811  0.15595260  0.38496694     0.06220
N433        N  0.29213663  0.12852289  0.18769532    -0.27160
N434        N  0.30046528  0.12671169  0.23204051    -0.35020
C435        C  0.27698810  0.12033510  0.25839286     0.01180
C436        C  0.25295933  0.11821087  0.22896121     0.07210
C437        C  0.26343037  0.12342402  0.18448305    -0.05890
H438        H  0.27722194  0.11881370  0.29629584     0.07880
H439        H  0.25097490  0.12510581  0.15235354     0.09080
Cu440      Cu  0.34313670  0.13650111  0.25385241     0.44170
Cu441      Cu  0.31878741  0.14247828  0.13387810     0.41990
Cu442      Cu  0.39051243  0.16906948  0.15803040     0.43880
N443        N  0.38694974  0.14980323  0.26206373    -0.34540
N444        N  0.40310459  0.16204735  0.22767416    -0.28800
C445        C  0.43041099  0.16564075  0.24315844    -0.04900
C446        C  0.43212165  0.15458739  0.28931298     0.07320
C447        C  0.40394675  0.14509620  0.30029801     0.01110
H448        H  0.44807105  0.17407517  0.22128461     0.08770
H449        H  0.39678704  0.13289121  0.33244731     0.07840
N450        N  0.37260805  0.17228650  0.09095490    -0.35990
N451        N  0.34539819  0.16274094  0.08349369    -0.28170
C452        C  0.33790138  0.16996566  0.03931208    -0.03410
C453        C  0.36159851  0.18438372  0.01710594     0.05200
C454        C  0.38346179  0.18536863  0.05078148     0.03290
H455        H  0.31649109  0.16553464  0.02472417     0.08400
H456        H  0.40500990  0.19652813  0.04709764     0.07230
N457        N  0.28809780  0.13365817  0.79589222    -0.27160
N458        N  0.29655067  0.13679239  0.75191789    -0.35020
C459        C  0.27278278  0.13780375  0.72436360     0.01180
C460        C  0.24850656  0.13535219  0.75282684     0.07210
C461        C  0.25904340  0.13291112  0.79784022    -0.05890
H462        H  0.27319284  0.13920138  0.68644753     0.07880
H463        H  0.24669817  0.12881333  0.82942475     0.09080
Cu464      Cu  0.34032443  0.13728478  0.73307996     0.44170
Cu465      Cu  0.31572904  0.12490982  0.85069913     0.41990
Cu466      Cu  0.39053127  0.12381484  0.83604177     0.43880
N467        N  0.38561661  0.13674031  0.72988043    -0.34540
N468        N  0.40271811  0.13332093  0.76697516    -0.28800
C469        C  0.43044174  0.13197686  0.75262556    -0.04900
C470        C  0.43139951  0.13392485  0.70391080     0.07320
C471        C  0.40235278  0.13726418  0.69086448     0.01110
H472        H  0.44836080  0.12770232  0.77649905     0.08770
H473        H  0.39387682  0.13791096  0.65542207     0.07840
N474        N  0.37206252  0.10869689  0.89917767    -0.35990
N475        N  0.34352047  0.10881153  0.90276702    -0.28170
C476        C  0.33604973  0.20740148  0.94458640    -0.03410
C477        C  0.36106926  0.19914561  0.96940319     0.05200
C478        C  0.38374557  0.20746366  0.93971237     0.03290
H479        H  0.31386129  0.20470425  0.95604044     0.08400
H480        H  0.40678179  0.20405676  0.94663650     0.07230
C481        C  0.48190296  0.12334678  0.54209463    -0.05990
C482        C  0.50739656  0.13666399  0.52183057    -0.17120
C483        C  0.51023121  0.14166952  0.47334246     0.11210
C484        C  0.48676012  0.13311296  0.44190494    -0.05920
C485        C  0.46129935  0.23081518  0.46225055    -0.17150
C486        C  0.45836696  0.22624352  0.51077164     0.11240
S487        S  0.54483357  0.04824939  0.45632678    -0.32120
S488        S  0.42358006  0.20932262  0.52801463    -0.32120
H489        H  0.43508923  0.18717510  0.56360197     0.29250
H490        H  0.53310438  0.06997473  0.42053088     0.29240
H491        H  0.52555938  0.14444973  0.54432868     0.19830
H492        H  0.44324425  0.22237707  0.43985296     0.19840
C493        C  0.98127840  0.11915087  0.93531903    -0.05990
C494        C  0.00761374  0.21685495  0.95531288    -0.17120
C495        C  0.01134110  0.21400549  0.00386598     0.11210
C496        C  0.98771120  0.11316449  0.03554048    -0.05920
C497        C  0.96145678  0.12693194  0.01560871    -0.17150
C498        C  0.95762073  0.12943934  0.96700223     0.11240
S499        S  0.04723536  0.19638922  0.02008922    -0.32120
S500        S  0.92137771  0.14591667  0.95098356    -0.32120
H501        H  0.92943041  0.16262206  0.91019840     0.29250
H502        H  0.03766753  0.17671096  0.05797058     0.29240
H503        H  0.02576415  0.20684177  0.93259833     0.19830
H504        H  0.94333340  0.13694895  0.03837153     0.19840
N505        N  0.78826245  0.30079394  0.68838256    -0.27160
N506        N  0.79646082  0.30275841  0.73296694    -0.35020
C507        C  0.77247924  0.30486313  0.76030151     0.01180
C508        C  0.74836772  0.30432067  0.73099458     0.07210
C509        C  0.75920282  0.30175857  0.68576729    -0.05890
H510        H  0.77259551  0.30622684  0.79845055     0.07880
H511        H  0.74699824  0.29942646  0.65323570     0.09080
Cu512      Cu  0.84022663  0.30172293  0.75184702     0.44170
Cu513      Cu  0.81627541  0.29269911  0.63291522     0.41990
Cu514      Cu  0.89108616  0.27752292  0.64955522     0.43880
N515        N  0.88548039  0.30235447  0.75497014    -0.34540
N516        N  0.90299083  0.29314880  0.71846007    -0.28800
C517        C  0.93047897  0.29880866  0.73176262    -0.04900
C518        C  0.93066777  0.31279041  0.77882067     0.07320
C519        C  0.90167898  0.31430715  0.79252165     0.01110
H520        H  0.94884241  0.29374851  0.70807286     0.08770
H521        H  0.89281765  0.32497816  0.82660998     0.07840
N522        N  0.87224888  0.26841380  0.58386299    -0.35990
N523        N  0.84396631  0.27458932  0.57910785    -0.28170
C524        C  0.83625292  0.26436320  0.53478296    -0.03410
C525        C  0.86090484  0.25124972  0.50989667     0.05200
C526        C  0.88360180  0.25439475  0.54178382     0.03290
H527        H  0.81412431  0.26567338  0.52204235     0.08400
H528        H  0.90624262  0.24566213  0.53545625     0.07230
N529        N  0.79077439  0.30912251  0.27859259    -0.27160
N530        N  0.79903592  0.31058759  0.23418761    -0.35020
C531        C  0.77503739  0.30979399  0.20696143     0.01180
C532        C  0.75089799  0.30795269  0.23604031     0.07210
C533        C  0.76177569  0.30756557  0.28104321    -0.05990
H534        H  0.77508892  0.31132471  0.16905827     0.07880
H535        H  0.74954650  0.30705693  0.31349418     0.09080
Cu536      Cu  0.84282382  0.31515561  0.21460946     0.44170
Cu537      Cu  0.81776907  0.31262437  0.33548472     0.41990
Cu538      Cu  0.89108758  0.32391922  0.32003025     0.43880
N539        N  0.88838482  0.31837778  0.21216848    -0.34540
N540        N  0.90458671  0.32022294  0.25064145    -0.28800
C541        C  0.93249707  0.32216346  0.23867141    -0.04900
C542        C  0.93475539  0.32211915  0.19007900     0.07320
C543        C  0.90615321  0.31948753  0.17432308     0.01110
H544        H  0.94962731  0.32436254  0.26452276     0.08770
H545        H  0.89870781  0.31946331  0.13822823     0.07840
N546        N  0.87266956  0.21928346  0.38625723    -0.35990
N547        N  0.84459032  0.32570675  0.39100942    -0.28170
C548        C  0.83670831  0.22391804  0.43578954    -0.03410
C549        C  0.86109146  0.23499323  0.46077162     0.05200
C550        C  0.88374606  0.23156681  0.42850724     0.03290
H551        H  0.81459473  0.22404046  0.44866033     0.08400
H552        H  0.90602765  0.23955350  0.43458948     0.07230
C553        C  0.98033116  0.23108990  0.88210929     0.03260
C554        C  0.95578897  0.33034072  0.85573573    -0.12890
C555        C  0.95632035  0.32616563  0.80642500     0.00760
C556        C  0.98183058  0.33382338  0.78281208    -0.11410
C557        C  0.00691616  0.23412398  0.80716819     0.03250
C558        C  0.00574462  0.23943565  0.85671581    -0.10830
H559        H  0.93611533  0.32354965  0.87280057     0.08850
H560        H  0.98204428  0.33044986  0.74493158     0.06380
H561        H  0.02482928  0.24954690  0.87544450     0.06220
C562        C  0.98854484  0.22223453  0.08863606     0.03260
C563        C  0.96299641  0.21358009  0.11350218    -0.12890
C564        C  0.96195709  0.21662389  0.16310525     0.00760
C565        C  0.98728529  0.22629842  0.18796001    -0.11410
C566        C  0.01304161  0.23365816  0.16480666     0.03250
C567        C  0.01339318  0.23204166  0.11550442    -0.10830
H568        H  0.94377201  0.20460382  0.09436661     0.08850
H569        H  0.98724071  0.22787985  0.22587170     0.06380
H570        H  0.03325246  0.23896880  0.09904910     0.06220
N571        N  0.17964914  0.23176947  0.69444348    -0.27160
N572        N  0.17040067  0.23700647  0.73857789    -0.35020
C573        C  0.19356553  0.24372354  0.76653716     0.01180
C574        C  0.21817296  0.24288892  0.73816760     0.07210
C575        C  0.20850264  0.23529273  0.69281412    -0.05890
H576        H  0.19259320  0.24866111  0.80455024     0.07880
H577        H  0.22149059  0.34253416  0.66096003     0.09080
Cu578      Cu  0.12642673  0.23521733  0.75692615     0.44170
Cu579      Cu  0.15400944  0.32866509  0.63789309     0.41990
Cu580      Cu  0.07925626  0.33301136  0.65053272     0.43880
N581        N  0.08088136  0.23640501  0.75813270    -0.34540
N582        N  0.06496819  0.34466568  0.71937326    -0.28800
C583        C  0.03684422  0.34589667  0.73115287    -0.04900
C584        C  0.03424572  0.23786613  0.77989755     0.07320
C585        C  0.06281076  0.23909168  0.79587687     0.01110
H586        H  0.01979781  0.34299355  0.70522576     0.08770
H587        H  0.07002363  0.24015619  0.83214356     0.07840
N588        N  0.09874309  0.31419482  0.58680533    -0.35990
N589        N  0.12731379  0.31194127  0.58360906    -0.28170
C590        C  0.13531468  0.29700652  0.54048035    -0.03410
C591        C  0.11051523  0.28960158  0.51480497     0.05200
C592        C  0.08750382  0.30097137  0.54499645     0.03290
H593        H  0.15762328  0.29218243  0.52877045     0.08400
H594        H  0.06455320  0.29905388  0.53753261     0.07230
N595        N  0.18244578  0.22666150  0.28528804    -0.27160
N596        N  0.17412571  0.22893817  0.24102558    -0.35020
C597        C  0.19803537  0.22871285  0.21366173     0.01180
C598        C  0.22233290  0.22637831  0.24243031     0.07210
C599        C  0.21158299  0.22503249  0.28751381    -0.05890
H600        H  0.19773583  0.34283551  0.17599890     0.07880
H601        H  0.22392405  0.22481375  0.31989077     0.09080
Cu602      Cu  0.13040509  0.23591650  0.22220572     0.44170
Cu603      Cu  0.15445866  0.23200253  0.34157888     0.41990
Cu604      Cu  0.08104900  0.26262734  0.32398685     0.43880
N605        N  0.08522450  0.24389561  0.21770313    -0.34540
N606        N  0.06817293  0.25443153  0.25441550    -0.28800
C607        C  0.04037197  0.25449552  0.24058152    -0.04900
C608        C  0.03944090  0.24289391  0.19287482     0.07320
C609        C  0.06839127  0.23679156  0.17941145     0.01110
H610        H  0.02220636  0.26109841  0.26438374     0.08770
H611        H  0.07658633  0.33686246  0.14501503     0.07840
N612        N  0.09929002  0.26242056  0.39034575    -0.35990
N613        N  0.12665609  0.25026057  0.39585625    -0.28170
C614        C  0.13403873  0.25646117  0.44116953    -0.03410
C615        C  0.11014072  0.27323007  0.46569060     0.05200
C616        C  0.08825373  0.27641891  0.43261045     0.03290
H617        H  0.15568282  0.25089091  0.45471173     0.08400
H618        H  0.06670633  0.29020881  0.43818952     0.07230
N619        N  0.67792871  0.29813666  0.78557049    -0.27160
N620        N  0.66968670  0.30318106  0.74178582    -0.35020
C621        C  0.69358096  0.30677171  0.71538185     0.01180
C622        C  0.71769626  0.30400604  0.74442286     0.07210
C623        C  0.70695829  0.29860611  0.78857362    -0.05890
H624        H  0.69341544  0.31073447  0.67791400     0.07880
H625        H  0.71927898  0.29408606  0.82032837     0.09080
Cu626      Cu  0.62612349  0.30406970  0.72183612     0.44170
Cu627      Cu  0.65025301  0.28751220  0.83877511     0.41990
Cu628      Cu  0.57577637  0.28140739  0.82023293     0.43880
N629        N  0.58091980  0.30428458  0.71716949    -0.34540
N630        N  0.56369946  0.29576402  0.75217156    -0.28800
C631        C  0.53602767  0.30033717  0.73839015    -0.04900
C632        C  0.53531172  0.31292573  0.69279314     0.07320
C633        C  0.56432431  0.31473171  0.68031658     0.01110
H634        H  0.51772282  0.29548431  0.76082932     0.08770
H635        H  0.57276023  0.32484969  0.64782965     0.07840
N636        N  0.59450919  0.26959760  0.88508524    -0.35990
N637        N  0.62287776  0.27172472  0.89002249    -0.28170
C638        C  0.63074662  0.26142039  0.93290889    -0.03410
C639        C  0.60616501  0.25253783  0.95707137     0.05200
C640        C  0.58329711  0.25820982  0.92589788     0.03290
H641        H  0.65291966  0.26056720  0.94545723     0.08400
H642        H  0.56054978  0.25345256  0.93196095     0.07230
N643        N  0.67977570  0.31150303  0.18122866    -0.27160
N644        N  0.67180959  0.31313921  0.22605266    -0.35020
C645        C  0.69597666  0.31119271  0.25267486     0.01180
C646        C  0.72001984  0.30846139  0.22287586     0.07210
C647        C  0.70888079  0.30869502  0.17797049    -0.05890
H648        H  0.69605713  0.31278913  0.29082810     0.07880
H649        H  0.72097625  0.30798610  0.14525699     0.09080
Cu650      Cu  0.62826586  0.32075621  0.24760466     0.44170
Cu651      Cu  0.65173154  0.31691212  0.12590272     0.41990
Cu652      Cu  0.57806637  0.33706455  0.14616965     0.43880
N653        N  0.58310122  0.33062156  0.25333397    -0.34540
N654        N  0.56606610  0.33595428  0.21657799    -0.28800
C655        C  0.53863151  0.34258356  0.23148670    -0.04900
C656        C  0.53766925  0.34161402  0.28024431     0.07320
C657        C  0.56649791  0.33385916  0.29283721     0.01110
H658        H  0.52096502  0.23749366  0.20767978     0.08770
H659        H  0.57493648  0.33146637  0.32809110     0.07840
N660        N  0.59573578  0.22802124  0.07920612    -0.35990
N661        N  0.62380878  0.33116332  0.07289753    -0.28170
C662        C  0.63107499  0.22634817  0.02856101    -0.03410
C663        C  0.60636593  0.23884455  0.00521272     0.05200
C664        C  0.58411057  0.23943514  0.03826592     0.03290
H665        H  0.65303344  0.22323221  0.01487084     0.08400
H666        H  0.56167650  0.24936369  0.03366958     0.07230
C667        C  0.48168293  0.23000571  0.59508093     0.03260
C668        C  0.50759366  0.21696883  0.61789435    -0.12890
C669        C  0.50881275  0.21543039  0.66723191     0.00760
C670        C  0.48406030  0.22701471  0.69390832    -0.11410
C671        C  0.45772316  0.23798550  0.67315302     0.03250
C672        C  0.45683212  0.24026574  0.62388619    -0.10830
H673        H  0.52678911  0.20749942  0.59739025     0.08850
H674        H  0.48545308  0.22715479  0.73165929     0.06380
H675        H  0.43662527  0.25007473  0.60884776     0.06220
C676        C  0.48707621  0.24775533  0.38867292     0.03260
C677        C  0.51223096  0.23818011  0.36029862    -0.12890
C678        C  0.51133795  0.23875169  0.31082617     0.00760
C679        C  0.48470572  0.24737693  0.28943754    -0.11410
C680        C  0.45948675  0.25743850  0.31558308     0.03250
C681        C  0.46081724  0.25820676  0.36507590    -0.10830
H682        H  0.53264237  0.22985219  0.37576554     0.08850
H683        H  0.48322600  0.24554742  0.25159185     0.06380
H684        H  0.44126767  0.26706498  0.38496835     0.06220
N685        N  0.29213567  0.23963585  0.18769804    -0.27160
N686        N  0.30046424  0.23782503  0.23204330    -0.35020
C687        C  0.27698706  0.23144822  0.25839556     0.01180
C688        C  0.25295837  0.22932345  0.22896374     0.07210
C689        C  0.26342947  0.23453654  0.18448561    -0.05890
H690        H  0.27722082  0.22992694  0.29629855     0.07880
H691        H  0.25097409  0.23621785  0.15235595     0.09080
Cu692      Cu  0.34313565  0.24761489  0.25385519     0.44170
Cu693      Cu  0.31878642  0.25359094  0.13388069     0.41990
Cu694      Cu  0.39051120  0.28018298  0.15803270     0.43880
N695        N  0.38694882  0.26091671  0.26206600    -0.34540
N696        N  0.40310358  0.27316073  0.22767627    -0.28800
C697        C  0.43041010  0.27675375  0.24316014    -0.04900
C698        C  0.43212093  0.26570026  0.28931461     0.07320
C699        C  0.40394601  0.25620938  0.30030001     0.01110
H700        H  0.44807011  0.28518798  0.22128607     0.08770
H701        H  0.39678641  0.24400438  0.33244936     0.07840
N702        N  0.37260686  0.28339926  0.09095715    -0.35990
N703        N  0.34539709  0.27385328  0.08349596    -0.28170
C704        C  0.33790030  0.28107741  0.03931418    -0.03410
C705        C  0.36159735  0.29549556  0.01710793     0.05200
C706        C  0.38346057  0.29648111  0.05078357     0.03290
H707        H  0.31649007  0.27664596  0.02472623     0.08400
H708        H  0.40500861  0.30764082  0.04709964     0.07230
N709        N  0.28809764  0.24476887  0.79589232    -0.27160
N710        N  0.29655056  0.24790332  0.75191806    -0.35020
C711        C  0.27278269  0.24891477  0.72436370     0.01180
C712        C  0.24850645  0.24646303  0.75282685     0.07210
C713        C  0.25904325  0.24402175  0.79784022    -0.05890
H714        H  0.27319279  0.25031263  0.68644767     0.07880
H715        H  0.24669798  0.23992385  0.82942469     0.09080
Cu716      Cu  0.34032434  0.24839603  0.73308043     0.44170
Cu717      Cu  0.31572885  0.23602056  0.85069927     0.41990
Cu718      Cu  0.39053112  0.23492697  0.83604256     0.43880
N719        N  0.38561651  0.24785178  0.72988113    -0.34540
N720        N  0.40271800  0.24443271  0.76697593    -0.28800
C721        C  0.43044163  0.24308855  0.75262636    -0.04900
C722        C  0.43139941  0.24503615  0.70391157     0.07320
C723        C  0.40235269  0.24837536  0.69086517     0.01110
H724        H  0.44836070  0.23881421  0.77649989     0.08770
H725        H  0.39387674  0.24902183  0.65542274     0.07840
N726        N  0.37206234  0.21980889  0.89917833    -0.35990
N727        N  0.34352030  0.21992296  0.90276743    -0.28170
C728        C  0.33604859  0.31851214  0.94458784    -0.03410
C729        C  0.36106810  0.31025697  0.96940498     0.05200
C730        C  0.38374442  0.31857546  0.93971442     0.03290
H731        H  0.31386015  0.31581452  0.95604167     0.08400
H732        H  0.40678063  0.31516928  0.94663893     0.07230
C733        C  0.48190264  0.23445805  0.54209544    -0.05990
C734        C  0.50739626  0.24777519  0.52183137    -0.17120
C735        C  0.51023088  0.25278085  0.47334330     0.11210
C736        C  0.48675969  0.24422464  0.44190587    -0.05920
C737        C  0.46129746  0.34192614  0.46225306    -0.17150
C738        C  0.45836542  0.33735443  0.51077421     0.11240
S739        S  0.54483371  0.15936061  0.45632693    -0.32120
S740        S  0.42357848  0.32043416  0.52801792    -0.32120
H741        H  0.43508758  0.29828722  0.56360575     0.29250
H742        H  0.53310458  0.18108597  0.42053101     0.29240
H743        H  0.52555913  0.25556076  0.54432944     0.19830
H744        H  0.44324216  0.33348827  0.43985579     0.19840
C745        C  0.98127818  0.23026205  0.93531896    -0.05990
C746        C  0.00761163  0.32796734  0.95531394    -0.17120
C747        C  0.01133855  0.32511790  0.00386711     0.11210
C748        C  0.98771082  0.22427557  0.03554045    -0.05920
C749        C  0.96145643  0.23804302  0.01560858    -0.17150
C750        C  0.95762045  0.24055045  0.96700208     0.11240
S751        S  0.04723251  0.30750105  0.02009114    -0.32120
S752        S  0.92137746  0.25702773  0.95098330    -0.32120
H753        H  0.92943027  0.27373298  0.91019816     0.29250
H754        H  0.03766404  0.28782335  0.05797249     0.29240
H755        H  0.02576223  0.31795412  0.93259983     0.19830
H756        H  0.94333301  0.24806001  0.03837132     0.19840
N757        N  0.78826385  0.41190549  0.68838603    -0.27160
N758        N  0.79646242  0.41386942  0.73297030    -0.35020
C759        C  0.77248094  0.41597369  0.76030514     0.01180
C760        C  0.74836930  0.41543151  0.73099845     0.07210
C761        C  0.75920423  0.41287004  0.68577107    -0.05890
H762        H  0.77259737  0.41733689  0.79845416     0.07880
H763        H  0.74699952  0.41053828  0.65323959     0.09080
Cu764      Cu  0.84022839  0.41283388  0.75184967     0.44170
Cu765      Cu  0.81627651  0.40381127  0.63291825     0.41990
Cu766      Cu  0.89108731  0.38863468  0.64955662     0.43880
N767        N  0.88548220  0.41346578  0.75497196    -0.34540
N768        N  0.90299243  0.40426051  0.71846150    -0.28800
C769        C  0.93048063  0.40992054  0.73176371    -0.04900
C770        C  0.93066970  0.42390194  0.77882190     0.07320
C771        C  0.90168098  0.42541832  0.79252332     0.01110
H772        H  0.94884396  0.40486067  0.70807365     0.08770
H773        H  0.89281985  0.43608893  0.82661190     0.07840
N774        N  0.87224944  0.37952547  0.58386465    -0.35990
N775        N  0.84396684  0.38570127  0.57911020    -0.28170
C776        C  0.83625296  0.37547515  0.53478554    -0.03410
C777        C  0.86090457  0.36236135  0.50989860     0.05200
C778        C  0.88360187  0.36550619  0.54178518     0.03290
H779        H  0.81412421  0.37678554  0.52204554     0.08400
H780        H  0.90624260  0.35677334  0.53545702     0.07230
N781        N  0.79077787  0.42023302  0.27858986    -0.27160
N782        N  0.79903958  0.42169845  0.23418503    -0.35020
C783        C  0.77504116  0.42090495  0.20695858     0.01180
C784        C  0.75090165  0.41906334  0.23603717     0.07210
C785        C  0.76177918  0.41867595  0.28104015    -0.05990
H786        H  0.77509283  0.42243596  0.16905546     0.07880
H787        H  0.74954988  0.41816706  0.31349097     0.09080
Cu788      Cu  0.84282764  0.42626679  0.21460785     0.44170
Cu789      Cu  0.81777226  0.42373478  0.33548229     0.41990
Cu790      Cu  0.89109077  0.43503089  0.32002970     0.43880
N791        N  0.88838865  0.42948923  0.21216789    -0.34540
N792        N  0.90459032  0.43133464  0.25064112    -0.28800
C793        C  0.93250075  0.43327525  0.23867150    -0.04900
C794        C  0.93475933  0.43323074  0.19007912     0.07320
C795        C  0.90615727  0.43059888  0.17432276     0.01110
H796        H  0.94963087  0.43547443  0.26452305     0.08770
H797        H  0.89871208  0.43057440  0.13822778     0.07840
N798        N  0.87266789  0.33039452  0.38625886    -0.35990
N799        N  0.84459286  0.43681752  0.39100763    -0.28170
C800        C  0.83670706  0.33503023  0.43579197    -0.03410
C801        C  0.86109057  0.34610481  0.46077351     0.05200
C802        C  0.88374489  0.34267768  0.42850859     0.03290
H803        H  0.81459356  0.33515326  0.44866326     0.08400
H804        H  0.90602667  0.35066373  0.43459030     0.07230
C805        C  0.98032968  0.34220156  0.88210965     0.03260
C806        C  0.95579154  0.44145152  0.85573682    -0.12890
C807        C  0.95632243  0.43727706  0.80642603     0.00760
C808        C  0.98183246  0.44493525  0.78281275    -0.11410
C809        C  0.00691522  0.34523502  0.80716888     0.03250
C810        C  0.00574334  0.35054713  0.85671648    -0.10830
H811        H  0.93611792  0.43466026  0.87280229     0.08850
H812        H  0.98204588  0.44156225  0.74493224     0.06380
H813        H  0.02482784  0.36065869  0.87544536     0.06220
C814        C  0.98854175  0.33334687  0.08863667     0.03260
C815        C  0.96299338  0.32469197  0.11350267    -0.12890
C816        C  0.96195420  0.32773506  0.16310581     0.00760
C817        C  0.98728247  0.33740934  0.18796059    -0.11410
C818        C  0.01303861  0.34476990  0.16480728     0.03250
C819        C  0.01338995  0.34315433  0.11550510    -0.10830
H820        H  0.94376897  0.31571586  0.09436701     0.08850
H821        H  0.98723809  0.33899008  0.22587227     0.06380
H822        H  0.03324896  0.35008233  0.09904976     0.06220
N823        N  0.17964827  0.34288050  0.69444410    -0.27160
N824        N  0.17039980  0.34811723  0.73857853    -0.35020
C825        C  0.19356466  0.35483404  0.76653787     0.01180
C826        C  0.21817211  0.35399954  0.73816836     0.07210
C827        C  0.20850179  0.34640368  0.69281481    -0.05890
H828        H  0.19259232  0.35977138  0.80455097     0.07880
H829        H  0.22149221  0.45364379  0.66095855     0.09080
Cu830      Cu  0.12642586  0.34632815  0.75692689     0.44170
Cu831      Cu  0.15401085  0.43977501  0.63789184     0.41990
Cu832      Cu  0.07925753  0.44412419  0.65053247     0.43880
N833        N  0.08088047  0.34751633  0.75813364    -0.34540
N834        N  0.06496974  0.45577812  0.71937307    -0.28800
C835        C  0.03684582  0.45700922  0.73115299    -0.04900
C836        C  0.03424482  0.34897755  0.77989847     0.07320
C837        C  0.06280987  0.35020256  0.79587782     0.01110
H838        H  0.01979926  0.45410653  0.70522609     0.08770
H839        H  0.07002273  0.35126633  0.83214450     0.07840
N840        N  0.09874381  0.42530681  0.58680503    -0.35990
N841        N  0.12731448  0.42305208  0.58360826    -0.28170
C842        C  0.13531479  0.40811692  0.54047942    -0.03410
C843        C  0.11051497  0.40071296  0.51480455     0.05200
C844        C  0.08750398  0.41208374  0.54499645     0.03290
H845        H  0.15762324  0.40329188  0.52876906     0.08400
H846        H  0.06455324  0.41016720  0.53753308     0.07230
N847        N  0.18244312  0.33777242  0.28528701    -0.27160
N848        N  0.17412308  0.34005013  0.24102469    -0.35020
C849        C  0.19803279  0.33982578  0.21366105     0.01180
C850        C  0.22233030  0.33749084  0.24242967     0.07210
C851        C  0.21158032  0.33614374  0.28751294    -0.05890
H852        H  0.19773970  0.45394680  0.17600270     0.07880
H853        H  0.22392133  0.33592442  0.31988992     0.09080
Cu854      Cu  0.13040235  0.34702867  0.22220524     0.44170
Cu855      Cu  0.15445597  0.34311220  0.34157773     0.41990
Cu856      Cu  0.08104651  0.37373891  0.32398719     0.43880
N857        N  0.08522165  0.35500753  0.21770327    -0.34540
N858        N  0.06817017  0.36554311  0.25441587    -0.28800
C859        C  0.04036916  0.36560691  0.24058213    -0.04900
C860        C  0.03943796  0.35400561  0.19287536     0.07320
C861        C  0.06838830  0.34790359  0.17941170     0.01110
H862        H  0.02220358  0.37220951  0.26438451     0.08770
H863        H  0.07659055  0.44797279  0.14501647     0.07840
N864        N  0.09928811  0.37353188  0.39034574    -0.35990
N865        N  0.12665405  0.36137101  0.39585561    -0.28170
C866        C  0.13403723  0.36757158  0.44116864    -0.03410
C867        C  0.11013972  0.38434138  0.46569024     0.05200
C868        C  0.08825244  0.38753080  0.43261067     0.03290
H869        H  0.15568139  0.36200070  0.45471027     0.08400
H870        H  0.06670530  0.40132141  0.43819025     0.07230
N871        N  0.67793027  0.40924632  0.78557414    -0.27160
N872        N  0.66968832  0.41429157  0.74178961    -0.35020
C873        C  0.69358259  0.41788275  0.71538588     0.01180
C874        C  0.71769787  0.41511658  0.74442683     0.07210
C875        C  0.70695986  0.40971579  0.78857737    -0.05890
H876        H  0.69341708  0.42184625  0.67791819     0.07880
H877        H  0.71928055  0.40519519  0.82033200     0.09080
Cu878      Cu  0.62612524  0.41518066  0.72183939     0.44170
Cu879      Cu  0.65025435  0.39862112  0.83877831     0.41990
Cu880      Cu  0.57577749  0.39251823  0.82023477     0.43880
N881        N  0.58092164  0.41539552  0.71717162    -0.34540
N882        N  0.56370105  0.40687477  0.75217326    -0.28800
C883        C  0.53602937  0.41144776  0.73839130    -0.04900
C884        C  0.53531374  0.42403650  0.69279437     0.07320
C885        C  0.56432642  0.42584270  0.68031842     0.01110
H886        H  0.51772439  0.40659469  0.76083008     0.08770
H887        H  0.57276257  0.43596087  0.64783175     0.07840
N888        N  0.59450970  0.38070822  0.88508736    -0.35990
N889        N  0.62287830  0.38283446  0.89002514    -0.28170
C890        C  0.63074659  0.37253012  0.93291180    -0.03410
C891        C  0.60616458  0.36364849  0.95707384     0.05200
C892        C  0.58329705  0.36932103  0.92589985     0.03290
H893        H  0.65291952  0.37167633  0.94546063     0.08400
H894        H  0.56054956  0.36456455  0.93196248     0.07230
N895        N  0.67977927  0.42261419  0.18122563    -0.27160
N896        N  0.67181327  0.42424968  0.22604966    -0.35020
C897        C  0.69598038  0.42230287  0.25267168     0.01180
C898        C  0.72002350  0.41957207  0.22287261     0.07210
C899        C  0.70888438  0.41980631  0.17796731    -0.05890
H900        H  0.69606091  0.42389874  0.29082490     0.07880
H901        H  0.72097979  0.41909791  0.14525381     0.09080
Cu902      Cu  0.62826969  0.43186628  0.24760253     0.44170
Cu903      Cu  0.65173490  0.42802389  0.12589992     0.41990
Cu904      Cu  0.57806967  0.44817537  0.14616895     0.43880
N905        N  0.58310512  0.44173183  0.25333319    -0.34540
N906        N  0.56606979  0.44706490  0.21657755    -0.28800
C907        C  0.53863533  0.45369437  0.23148682    -0.04900
C908        C  0.53767334  0.45272452  0.28024445     0.07320
C909        C  0.56650207  0.44496935  0.29283677     0.01110
H910        H  0.52096260  0.34860656  0.20768196     0.08770
H911        H  0.57494085  0.44257631  0.32809049     0.07840
N912        N  0.59573387  0.33913291  0.07920860    -0.35990
N913        N  0.62381141  0.44227493  0.07289550    -0.28170
C914        C  0.63107346  0.33745827  0.02856404    -0.03410
C915        C  0.60636481  0.34995547  0.00521528     0.05200
C916        C  0.58410918  0.35054706  0.03826813     0.03290
H917        H  0.65303198  0.33434141  0.01487424     0.08400
H918        H  0.56167532  0.36047644  0.03367137     0.07230
C919        C  0.48168182  0.34111707  0.59508317     0.03260
C920        C  0.50759255  0.32807994  0.61789643    -0.12890
C921        C  0.50881178  0.32654168  0.66723401     0.00760
C922        C  0.48405942  0.33812619  0.69391058    -0.11410
C923        C  0.45772232  0.34909741  0.67315541     0.03250
C924        C  0.45683121  0.35137783  0.62388861    -0.10830
H925        H  0.52678787  0.31861021  0.59739217     0.08850
H926        H  0.48545222  0.33826610  0.73166155     0.06380
H927        H  0.43662447  0.36118754  0.60885026     0.06220
C928        C  0.48707382  0.35886657  0.38867507     0.03260
C929        C  0.51222846  0.34929153  0.36030056    -0.12890
C930        C  0.51133537  0.34986351  0.31082822     0.00760
C931        C  0.48470314  0.35848892  0.28943976    -0.11410
C932        C  0.45948419  0.36855032  0.31558545     0.03250
C933        C  0.46081475  0.36931815  0.36507831    -0.10830
H934        H  0.53263988  0.34096349  0.37576722     0.08850
H935        H  0.48322345  0.35665958  0.25159408     0.06380
H936        H  0.44126521  0.37817615  0.38497094     0.06220
N937        N  0.29213325  0.35075005  0.18769861    -0.27160
N938        N  0.30046163  0.34893873  0.23204392    -0.35020
C939        C  0.27698434  0.34256139  0.25839570     0.01180
C940        C  0.25295580  0.34043676  0.22896355     0.07210
C941        C  0.26342708  0.34565052  0.18448571    -0.05890
H942        H  0.27721796  0.34103949  0.29629862     0.07880
H943        H  0.25097186  0.34733195  0.15235591     0.09080
Cu944      Cu  0.34313297  0.35872822  0.25385664     0.44170
Cu945      Cu  0.31878432  0.36470530  0.13388165     0.41990
Cu946      Cu  0.39050929  0.39129540  0.15803456     0.43880
N947        N  0.38694627  0.37202940  0.26206802    -0.34540
N948        N  0.40310123  0.38427318  0.22767839    -0.28800
C949        C  0.43040773  0.38786587  0.24316246    -0.04900
C950        C  0.43211839  0.37681238  0.28931694     0.07320
C951        C  0.40394334  0.36732186  0.30030215     0.01110
H952        H  0.44806782  0.39629994  0.22128847     0.08770
H953        H  0.39678356  0.35511697  0.33245147     0.07840
N954        N  0.37260564  0.39451142  0.09095844    -0.35990
N955        N  0.34539575  0.38496619  0.08349690    -0.28170
C956        C  0.33789949  0.39218981  0.03931473    -0.03410
C957        C  0.36159700  0.40660689  0.01710860     0.05200
C958        C  0.38345995  0.40759227  0.05078473     0.03290
H959        H  0.31648930  0.38775877  0.02472642     0.08400
H960        H  0.40500823  0.41875123  0.04710101     0.07230
N961        N  0.28809666  0.35587914  0.79589347    -0.27160
N962        N  0.29654968  0.35901396  0.75191934    -0.35020
C963        C  0.27278188  0.36002552  0.72436482     0.01180
C964        C  0.24850557  0.35757349  0.75282776     0.07210
C965        C  0.25904227  0.35513190  0.79784115    -0.05890
H966        H  0.27319206  0.36142374  0.68644884     0.07880
H967        H  0.24669694  0.35103378  0.82942549     0.09080
Cu968      Cu  0.34032352  0.35950721  0.73308229     0.44170
Cu969      Cu  0.31572776  0.34713075  0.85070051     0.41990
Cu970      Cu  0.39053016  0.34603897  0.83604481     0.43880
N971        N  0.38561569  0.35896352  0.72988338    -0.34540
N972        N  0.40271715  0.35554479  0.76697827    -0.28800
C973        C  0.43044080  0.35420085  0.75262879    -0.04900
C974        C  0.43139860  0.35614822  0.70391397     0.07320
C975        C  0.40235189  0.35948709  0.69086747     0.01110
H976        H  0.44835989  0.34992677  0.77650236     0.08770
H977        H  0.39387597  0.36013320  0.65542499     0.07840
N978        N  0.37206122  0.33092028  0.89918018    -0.35990
N979        N  0.34351919  0.33103365  0.90276890    -0.28170
C980        C  0.33604910  0.42962311  0.94458758    -0.03410
C981        C  0.36106835  0.42136769  0.96940528     0.05200
C982        C  0.38374499  0.42968527  0.93971482     0.03290
H983        H  0.31386053  0.42692618  0.95604113     0.08400
H984        H  0.40678113  0.42627872  0.94663976     0.07230
C985        C  0.48190131  0.34556894  0.54209760    -0.05990
C986        C  0.50739485  0.35888581  0.52183308    -0.17120
C987        C  0.51022913  0.36389153  0.47334497     0.11210
C988        C  0.48675766  0.35533557  0.44190797    -0.05920
C989        C  0.46130115  0.45303839  0.46225345    -0.17150
C990        C  0.45836872  0.44846675  0.51077455     0.11240
S991        S  0.54483347  0.27047164  0.45632777    -0.32120
S992        S  0.42358175  0.43154610  0.52801759    -0.32120
H993        H  0.43509084  0.40939864  0.56360505     0.29250
H994        H  0.53310450  0.29219715  0.42053191     0.29240
H995        H  0.52555788  0.36667132  0.54433085     0.19830
H996        H  0.44324601  0.44460039  0.43985590     0.19840
C997        C  0.98127622  0.34137425  0.93531939    -0.05990
C998        C  0.00761510  0.43907691  0.95531393    -0.17120
C999        C  0.01134249  0.43622750  0.00386706     0.11210
C1000       C  0.98770800  0.33538793  0.03554105    -0.05920
C1001       C  0.96145376  0.34915522  0.01560863    -0.17150
C1002       C  0.95761817  0.35166261  0.96700199     0.11240
S1003       S  0.04723691  0.41861166  0.02009022    -0.32120
S1004       S  0.92137512  0.36813942  0.95098257    -0.32120
H1005       H  0.92942704  0.38484343  0.91019605     0.29250
H1006       H  0.03767006  0.39893429  0.05797293     0.29240
H1007       H  0.02576552  0.42906384  0.93259933     0.19830
H1008       H  0.94333012  0.35917193  0.03837105     0.19840
N1009       N  0.78826341  0.52301633  0.68838333    -0.27160
N1010       N  0.79646181  0.52498069  0.73296769    -0.35020
C1011       C  0.77248025  0.52708526  0.76030231     0.01180
C1012       C  0.74836871  0.52654284  0.73099542     0.07210
C1013       C  0.75920378  0.52398091  0.68576811    -0.05890
H1014       H  0.77259655  0.52844883  0.79845135     0.07880
H1015       H  0.74699918  0.52164885  0.65323654     0.09080
Cu1016     Cu  0.84022764  0.52394526  0.75184771     0.44170
Cu1017     Cu  0.81627632  0.51492159  0.63291591     0.41990
Cu1018     Cu  0.89108711  0.49974538  0.64955585     0.43880
N1019       N  0.88548141  0.52457692  0.75497083    -0.34540
N1020       N  0.90299185  0.51537132  0.71846073    -0.28800
C1021       C  0.93047999  0.52103125  0.73176328    -0.04900
C1022       C  0.93066880  0.53501298  0.77882135     0.07320
C1023       C  0.90168000  0.53652964  0.79252233     0.01110
H1024       H  0.94884342  0.51597116  0.70807352     0.08770
H1025       H  0.89281868  0.54720059  0.82661069     0.07840
N1026       N  0.87224977  0.49063618  0.58386361    -0.35990
N1027       N  0.84396719  0.49681173  0.57910851    -0.28170
C1028       C  0.83625378  0.48658562  0.53478362    -0.03410
C1029       C  0.86090568  0.47347213  0.50989728     0.05200
C1030       C  0.88360266  0.47661712  0.54178442     0.03290
H1031       H  0.81412516  0.48789586  0.52204303     0.08400
H1032       H  0.90624347  0.46788452  0.53545680     0.07230
N1033       N  0.79077675  0.53134440  0.27859079    -0.27160
N1034       N  0.79903851  0.53280954  0.23418594    -0.35020
C1035       C  0.77504014  0.53201595  0.20695940     0.01180
C1036       C  0.75090058  0.53017456  0.23603791     0.07210
C1037       C  0.76177805  0.52978738  0.28104098    -0.05990
H1038       H  0.77509187  0.53354679  0.16905625     0.07880
H1039       H  0.74954868  0.52927877  0.31349177     0.09080
Cu1040     Cu  0.84282651  0.53737773  0.21460866     0.44170
Cu1041     Cu  0.81777111  0.53484658  0.33548336     0.41990
Cu1042     Cu  0.89108968  0.54614244  0.32003022     0.43880
N1043       N  0.88838746  0.54060021  0.21216848    -0.34540
N1044       N  0.90458918  0.54244595  0.25064164    -0.28800
C1045       C  0.93249957  0.54438657  0.23867187    -0.04900
C1046       C  0.93475808  0.54434164  0.19007944     0.07320
C1047       C  0.90615599  0.54170963  0.17432324     0.01110
H1048       H  0.94962971  0.54658611  0.26452336     0.08770
H1049       H  0.89871074  0.54168487  0.13822828     0.07840
N1050       N  0.87267043  0.44150577  0.38625782    -0.35990
N1051       N  0.84459197  0.54792918  0.39100854    -0.28170
C1052       C  0.83670910  0.44614080  0.43578998    -0.03410
C1053       C  0.86109227  0.45721572  0.46077217     0.05200
C1054       C  0.88374692  0.45378903  0.42850788     0.03290
H1055       H  0.81459548  0.44626344  0.44866068     0.08400
H1056       H  0.90602857  0.46177542  0.43459022     0.07230
C1057       C  0.98033247  0.45331198  0.88211039     0.03260
C1058       C  0.95579007  0.55256316  0.85573647    -0.12890
C1059       C  0.95632138  0.54838822  0.80642569     0.00760
C1060       C  0.98183160  0.55604607  0.78281272    -0.11410
C1061       C  0.00691727  0.45634661  0.80716928     0.03250
C1062       C  0.00574583  0.46165802  0.85671690    -0.10830
H1063       H  0.93611646  0.54577218  0.87280133     0.08850
H1064       H  0.98204531  0.55267261  0.74493220     0.06380
H1065       H  0.02483047  0.47176934  0.87544558     0.06220
C1066       C  0.98854615  0.44445684  0.08863711     0.03260
C1067       C  0.96299771  0.43580235  0.11350317    -0.12890
C1068       C  0.96195828  0.43884642  0.16310622     0.00760
C1069       C  0.98728637  0.44852129  0.18796106    -0.11410
C1070       C  0.01304272  0.45588104  0.16480778     0.03250
C1071       C  0.01339438  0.45426439  0.11550553    -0.10830
H1072       H  0.94377340  0.42682577  0.09436755     0.08850
H1073       H  0.98724169  0.45010295  0.22587276     0.06380
H1074       H  0.03325361  0.46119175  0.09905021     0.06220
N1075       N  0.17964988  0.45399057  0.69444271    -0.27160
N1076       N  0.17040146  0.45922773  0.73857714    -0.35020
C1077       C  0.19356635  0.46594466  0.76653637     0.01180
C1078       C  0.21817378  0.46510981  0.73816682     0.07210
C1079       C  0.20850342  0.45751362  0.69281333    -0.05890
H1080       H  0.19259402  0.47088233  0.80454944     0.07880
H1081       H  0.22149179  0.56475561  0.66096183     0.09080
Cu1082     Cu  0.12642758  0.45743918  0.75692589     0.44170
Cu1083     Cu  0.15401060  0.55088714  0.63789452     0.41990
Cu1084     Cu  0.07925733  0.55523535  0.65053375     0.43880
N1085       N  0.08088222  0.45862805  0.75813325    -0.34540
N1086       N  0.06496921  0.56688917  0.71937422    -0.28800
C1087       C  0.03684523  0.56812030  0.73115372    -0.04900
C1088       C  0.03424669  0.46008944  0.77989860     0.07320
C1089       C  0.06281183  0.46131394  0.79587763     0.01110
H1090       H  0.01979879  0.56521769  0.70522656     0.08770
H1091       H  0.07002487  0.46237703  0.83214420     0.07840
N1092       N  0.09874409  0.53641838  0.58680654    -0.35990
N1093       N  0.12731478  0.53416405  0.58361035    -0.28170
C1094       C  0.13531553  0.51922896  0.54048170    -0.03410
C1095       C  0.11051598  0.51182463  0.51480632     0.05200
C1096       C  0.08750468  0.52319513  0.54499771     0.03290
H1097       H  0.15762409  0.51440416  0.52877186     0.08400
H1098       H  0.06455402  0.52127817  0.53753388     0.07230
N1099       N  0.18244648  0.44888397  0.28529066    -0.27160
N1100       N  0.17412668  0.45116132  0.24102818    -0.35020
C1101       C  0.19803650  0.45093724  0.21366489     0.01180
C1102       C  0.22233386  0.44860288  0.24243387     0.07210
C1103       C  0.21158368  0.44725581  0.28751703    -0.05890
H1104       H  0.19773850  0.56505805  0.17599941     0.07880
H1105       H  0.22392453  0.44703686  0.31989420     0.09080
Cu1106     Cu  0.13040611  0.45813932  0.22220769     0.44170
Cu1107     Cu  0.15445893  0.45422354  0.34158091     0.41990
Cu1108     Cu  0.08104971  0.48485056  0.32398829     0.43880
N1109       N  0.08522551  0.46611853  0.21770465    -0.34540
N1110       N  0.06817385  0.47665467  0.25441685    -0.28800
C1111       C  0.04037293  0.47671870  0.24058268    -0.04900
C1112       C  0.03944196  0.46511692  0.19287602     0.07320
C1113       C  0.06839237  0.45901441  0.17941287     0.01110
H1114       H  0.02220726  0.48332172  0.26438476     0.08770
H1115       H  0.07658907  0.55908443  0.14501509     0.07840
N1116       N  0.09929053  0.48464324  0.39034730    -0.35990
N1117       N  0.12665637  0.47248227  0.39585801    -0.28170
C1118       C  0.13403902  0.47868286  0.44117127    -0.03410
C1119       C  0.11014125  0.49545280  0.46569211     0.05200
C1120       C  0.08825438  0.49864224  0.43261186     0.03290
H1121       H  0.15568301  0.47311200  0.45471357     0.08400
H1122       H  0.06670723  0.51243301  0.43819074     0.07230
N1123       N  0.67792971  0.52035824  0.78557124    -0.27160
N1124       N  0.66968771  0.52540306  0.74178665    -0.35020
C1125       C  0.69358196  0.52899396  0.71538276     0.01180
C1126       C  0.71769726  0.52622805  0.74442373     0.07210
C1127       C  0.70695929  0.52082771  0.78857439    -0.05890
H1128       H  0.69341643  0.53295709  0.67791499     0.07880
H1129       H  0.71927999  0.51630739  0.82032907     0.09080
Cu1130     Cu  0.62612454  0.52629194  0.72183691     0.44170
Cu1131     Cu  0.65025394  0.50973345  0.83877570     0.41990
Cu1132     Cu  0.57577720  0.50362986  0.82023363     0.43880
N1133       N  0.58092088  0.52650699  0.71717013    -0.34540
N1134       N  0.56370047  0.51798651  0.75217212    -0.28800
C1135       C  0.53602871  0.52255969  0.73839054    -0.04900
C1136       C  0.53531287  0.53514822  0.69279349     0.07320
C1137       C  0.56432549  0.53695412  0.68031709     0.01110
H1138       H  0.51772382  0.51770684  0.76082961     0.08770
H1139       H  0.57276151  0.54707202  0.64783020     0.07840
N1140       N  0.59450992  0.49181978  0.88508599    -0.35990
N1141       N  0.62287853  0.49394637  0.89002314    -0.28170
C1142       C  0.63074732  0.48364202  0.93290958    -0.03410
C1143       C  0.60616563  0.47475999  0.95707221     0.05200
C1144       C  0.58329775  0.48043231  0.92589875     0.03290
H1145       H  0.65292037  0.48278850  0.94545785     0.08400
H1146       H  0.56055037  0.47567553  0.93196193     0.07230
N1147       N  0.67977832  0.53372598  0.18122600    -0.27160
N1148       N  0.67181224  0.53536135  0.22604999    -0.35020
C1149       C  0.69597929  0.53341431  0.25267212     0.01180
C1150       C  0.72002247  0.53068347  0.22287319     0.07210
C1151       C  0.70888344  0.53091794  0.17796783    -0.05890
H1152       H  0.69605974  0.53501003  0.29082535     0.07880
H1153       H  0.72097892  0.53020957  0.14525440     0.09080
Cu1154     Cu  0.62826865  0.54297797  0.24760268     0.44170
Cu1155     Cu  0.65173406  0.53913588  0.12590016     0.41990
Cu1156     Cu  0.57806884  0.55928712  0.14616873     0.43880
N1157       N  0.58310406  0.55284326  0.25333301    -0.34540
N1158       N  0.56606884  0.55817635  0.21657725    -0.28800
C1159       C  0.53863431  0.56480548  0.23148629    -0.04900
C1160       C  0.53767217  0.56383540  0.28024389     0.07320
C1161       C  0.56650088  0.55608046  0.29283644     0.01110
H1162       H  0.52096634  0.45971779  0.20768239     0.08770
H1163       H  0.57493955  0.55368730  0.32809022     0.07840
N1164       N  0.59573650  0.45024412  0.07920737    -0.35990
N1165       N  0.62381067  0.55338669  0.07289550    -0.28170
C1166       C  0.63107551  0.44857000  0.02856177    -0.03410
C1167       C  0.60636651  0.46106690  0.00521369     0.05200
C1168       C  0.58411127  0.46165815  0.03826721     0.03290
H1169       H  0.65303389  0.44545344  0.01487134     0.08400
H1170       H  0.56167728  0.47158720  0.03367110     0.07230
C1171       C  0.48168454  0.45222878  0.59508387     0.03260
C1172       C  0.50759510  0.43919138  0.61789737    -0.12890
C1173       C  0.50881398  0.43765256  0.66723491     0.00760
C1174       C  0.48406144  0.44923672  0.69391118    -0.11410
C1175       C  0.45772446  0.46020805  0.67315578     0.03250
C1176       C  0.45683370  0.46248909  0.62388902    -0.10830
H1177       H  0.52679056  0.42972186  0.59739333     0.08850
H1178       H  0.48545400  0.44937628  0.73166213     0.06380
H1179       H  0.43662705  0.47229886  0.60885053     0.06220
C1180       C  0.48707808  0.46997821  0.38867573     0.03260
C1181       C  0.51223278  0.46040284  0.36030128    -0.12890
C1182       C  0.51133959  0.46097410  0.31082876     0.00760
C1183       C  0.48470726  0.46959904  0.28944031    -0.11410
C1184       C  0.45948843  0.47966114  0.31558596     0.03250
C1185       C  0.46081907  0.48042972  0.36507879    -0.10830
H1186       H  0.53264426  0.45207492  0.37576810     0.08850
H1187       H  0.48322737  0.46776889  0.25159465     0.06380
H1188       H  0.44126958  0.48928820  0.38497131     0.06220
N1189       N  0.29213670  0.46186237  0.18770279    -0.27160
N1190       N  0.30046511  0.46005174  0.23204816    -0.35020
C1191       C  0.27698787  0.45367451  0.25840013     0.01180
C1192       C  0.25295935  0.45154922  0.22896796     0.07210
C1193       C  0.26343059  0.45676249  0.18448999    -0.05890
H1194       H  0.27722150  0.45215301  0.29630309     0.07880
H1195       H  0.25097538  0.45844326  0.15236009     0.09080
Cu1196     Cu  0.34313655  0.46984158  0.25386012     0.44170
Cu1197     Cu  0.31878759  0.47581697  0.13388541     0.41990
Cu1198     Cu  0.39051281  0.50240610  0.15803568     0.43880
N1199       N  0.38695015  0.48314165  0.26206984    -0.34540
N1200       N  0.40310512  0.49538413  0.22767943    -0.28800
C1201       C  0.43041184  0.49897598  0.24316276    -0.04900
C1202       C  0.43212261  0.48792333  0.28931757     0.07320
C1203       C  0.40394743  0.47843421  0.30030375     0.01110
H1204       H  0.44807195  0.50740902  0.22128814     0.08770
H1205       H  0.39678762  0.46623031  0.33245365     0.07840
N1206       N  0.37260846  0.50562212  0.09096001    -0.35990
N1207       N  0.34539841  0.49607721  0.08349952    -0.28170
C1208       C  0.33790163  0.50330046  0.03931749    -0.03410
C1209       C  0.36159895  0.51771700  0.01711030     0.05200
C1210       C  0.38346234  0.51870244  0.05078570     0.03290
H1211       H  0.31649124  0.49886946  0.02472997     0.08400
H1212       H  0.40501067  0.52986098  0.04710103     0.07230
N1213       N  0.28809825  0.46698931  0.79589218    -0.27160
N1214       N  0.29655138  0.47012391  0.75191807    -0.35020
C1215       C  0.27278363  0.47113548  0.72436342     0.01180
C1216       C  0.24850725  0.46868371  0.75282626     0.07210
C1217       C  0.25904385  0.46624225  0.79783974    -0.05890
H1218       H  0.27319389  0.47253352  0.68644741     0.07880
H1219       H  0.24669844  0.46214432  0.82942405     0.09080
Cu1220     Cu  0.34032530  0.47061682  0.73308134     0.44170
Cu1221     Cu  0.31572918  0.45824094  0.85069944     0.41990
Cu1222     Cu  0.39053156  0.45714761  0.83604450     0.43880
N1223       N  0.38561751  0.47007305  0.72988299    -0.34540
N1224       N  0.40271881  0.46665391  0.76697802    -0.28800
C1225       C  0.43044252  0.46531028  0.75262884    -0.04900
C1226       C  0.43140055  0.46725829  0.70391409     0.07320
C1227       C  0.40235389  0.47059718  0.69086732     0.01110
H1228       H  0.44836151  0.46103605  0.77650256     0.08770
H1229       H  0.39387812  0.47124378  0.65542478     0.07840
N1230       N  0.37206221  0.44202980  0.89918010    -0.35990
N1231       N  0.34352013  0.44214385  0.90276846    -0.28170
C1232       C  0.33605023  0.54073197  0.94458938    -0.03410
C1233       C  0.36106976  0.53247712  0.96940663     0.05200
C1234       C  0.38374605  0.54079494  0.93971559     0.03290
H1235       H  0.31386180  0.53803488  0.95604350     0.08400
H1236       H  0.40678227  0.53738900  0.94664015     0.07230
C1237       C  0.48190439  0.45668116  0.54209837    -0.05990
C1238       C  0.50739812  0.46999800  0.52183430    -0.17120
C1239       C  0.51023276  0.47500368  0.47334619     0.11210
C1240       C  0.48676155  0.46644764  0.44190874    -0.05920
C1241       C  0.46129956  0.56414812  0.46225266    -0.17150
C1242       C  0.45836724  0.55957673  0.51077388     0.11240
S1243       S  0.54483157  0.38158245  0.45632890    -0.32120
S1244       S  0.42358022  0.54265656  0.52801737    -0.32120
H1245       H  0.43508908  0.52050967  0.56360548     0.29250
H1246       H  0.53310216  0.40330830  0.42053361     0.29240
H1247       H  0.52556106  0.47778325  0.54433236     0.19830
H1248       H  0.44324436  0.55571014  0.43985525     0.19840
C1249       C  0.98127953  0.45248401  0.93532003    -0.05990
C1250       C  0.00761327  0.55018892  0.95531402    -0.17120
C1251       C  0.01134055  0.54733956  0.00386713     0.11210
C1252       C  0.98771218  0.44649763  0.03554150    -0.05920
C1253       C  0.96145778  0.46026500  0.01560959    -0.17150
C1254       C  0.95762181  0.46277241  0.96700311     0.11240
S1255       S  0.04723464  0.52972284  0.02009063    -0.32120
S1256       S  0.92137889  0.47925000  0.95098426    -0.32120
H1257       H  0.92943194  0.49595537  0.91019930     0.29250
H1258       H  0.03766658  0.51004521  0.05797232     0.29240
H1259       H  0.02576370  0.54017563  0.93259958     0.19830
H1260       H  0.94333435  0.47028205  0.03837231     0.19840
N1261       N  0.78826415  0.63412777  0.68838493    -0.27160
N1262       N  0.79646256  0.63609213  0.73296929    -0.35020
C1263       C  0.77248097  0.63819670  0.76030389     0.01180
C1264       C  0.74836944  0.63765429  0.73099695     0.07210
C1265       C  0.75920454  0.63509236  0.68576968    -0.05890
H1266       H  0.77259724  0.63956028  0.79845292     0.07880
H1267       H  0.74699996  0.63276030  0.65323808     0.09080
Cu1268     Cu  0.84022846  0.63505674  0.75184915     0.44170
Cu1269     Cu  0.81627693  0.62603301  0.63291742     0.41990
Cu1270     Cu  0.89108759  0.61085682  0.64955655     0.43880
N1271       N  0.88548229  0.63568852  0.75497173    -0.34540
N1272       N  0.90299257  0.62648296  0.71846140    -0.28800
C1273       C  0.93048076  0.63214294  0.73176366    -0.04900
C1274       C  0.93066979  0.64612464  0.77882174     0.07320
C1275       C  0.90168106  0.64764122  0.79252307     0.01110
H1276       H  0.94884412  0.62708284  0.70807371     0.08770
H1277       H  0.89281991  0.65831207  0.82661156     0.07840
N1278       N  0.87225001  0.60174738  0.58386438    -0.35990
N1279       N  0.84396741  0.60792297  0.57910965    -0.28170
C1280       C  0.83625374  0.59769686  0.53478489    -0.03410
C1281       C  0.86090548  0.58458331  0.50989819     0.05200
C1282       C  0.88360265  0.58772827  0.54178501     0.03290
H1283       H  0.81412504  0.59900718  0.52204463     0.08400
H1284       H  0.90624343  0.57899568  0.53545704     0.07230
N1285       N  0.79077970  0.64245482  0.27858757    -0.27160
N1286       N  0.79904164  0.64392048  0.23418289    -0.35020
C1287       C  0.77504336  0.64312726  0.20695609     0.01180
C1288       C  0.75090370  0.64128557  0.23603431     0.07210
C1289       C  0.76178099  0.64089784  0.28103743    -0.05990
H1290       H  0.77509523  0.64465858  0.16905301     0.07880
H1291       H  0.74955152  0.64038890  0.31348807     0.09080
Cu1292     Cu  0.84282976  0.64848893  0.21460650     0.44170
Cu1293     Cu  0.81777383  0.64595651  0.33548034     0.41990
Cu1294     Cu  0.89109235  0.65725445  0.32002893     0.43880
N1295       N  0.88839069  0.65171173  0.21216717    -0.34540
N1296       N  0.90459221  0.65355787  0.25064056    -0.28800
C1297       C  0.93250266  0.65549854  0.23867113    -0.04900
C1298       C  0.93476139  0.65545319  0.19007870     0.07320
C1299       C  0.90615941  0.65282089  0.17432213     0.01110
H1300       H  0.94963270  0.65769827  0.26452279     0.08770
H1301       H  0.89871434  0.65279571  0.13822705     0.07840
N1302       N  0.87266954  0.55261728  0.38625846    -0.35990
N1303       N  0.84459407  0.65903956  0.39100608    -0.28170
C1304       C  0.83670844  0.55725234  0.43579104    -0.03410
C1305       C  0.86109177  0.56832704  0.46077301     0.05200
C1306       C  0.88374626  0.56490032  0.42850842     0.03290
H1307       H  0.81459488  0.55737505  0.44866202     0.08400
H1308       H  0.90602796  0.57288655  0.43459053     0.07230
C1309       C  0.98033090  0.56442375  0.88211030     0.03260
C1310       C  0.95579179  0.66367399  0.85573660    -0.12890
C1311       C  0.95632255  0.65949977  0.80642578     0.00760
C1312       C  0.98183254  0.66715802  0.78281236    -0.11410
C1313       C  0.00691622  0.56745774  0.80716954     0.03250
C1314       C  0.00574443  0.57276958  0.85671710    -0.10830
H1315       H  0.93611822  0.65688277  0.87280209     0.08850
H1316       H  0.98204582  0.66378537  0.74493182     0.06380
H1317       H  0.02482896  0.58288109  0.87544596     0.06220
C1318       C  0.98854430  0.55556874  0.08863701     0.03260
C1319       C  0.96299602  0.54691388  0.11350320    -0.12890
C1320       C  0.96195692  0.54995724  0.16310629     0.00760
C1321       C  0.98728522  0.55963155  0.18796093    -0.11410
C1322       C  0.01304134  0.56699200  0.16480742     0.03250
C1323       C  0.01339259  0.56537627  0.11550522    -0.10830
H1324       H  0.94377160  0.53793765  0.09436768     0.08850
H1325       H  0.98724088  0.56121233  0.22587261     0.06380
H1326       H  0.03325157  0.57230424  0.09904971     0.06220
N1327       N  0.17964941  0.56510219  0.69444572    -0.27160
N1328       N  0.17040089  0.57033890  0.73858012    -0.35020
C1329       C  0.19356574  0.57705545  0.76653958     0.01180
C1330       C  0.21817323  0.57622083  0.73817017     0.07210
C1331       C  0.20850295  0.56862516  0.69281656    -0.05890
H1332       H  0.19259336  0.58199269  0.80455269     0.07880
H1333       H  0.22149259  0.67586628  0.66095966     0.09080
Cu1334     Cu  0.12642688  0.56855024  0.75692818     0.44170
Cu1335     Cu  0.15401138  0.66199739  0.63789292     0.41990
Cu1336     Cu  0.07925816  0.66634532  0.65053247     0.43880
N1337       N  0.08088148  0.56973909  0.75813466    -0.34540
N1338       N  0.06497018  0.67799952  0.71937290    -0.28800
C1339       C  0.03684622  0.67923056  0.73115258    -0.04900
C1340       C  0.03424581  0.57120050  0.77989928     0.07320
C1341       C  0.06281085  0.57242498  0.79587876     0.01110
H1342       H  0.01979975  0.67632736  0.70522557     0.08770
H1343       H  0.07002368  0.57348808  0.83214544     0.07840
N1344       N  0.09874481  0.64752853  0.58680520    -0.35990
N1345       N  0.12731549  0.64527430  0.58360884    -0.28170
C1346       C  0.13531615  0.63033950  0.54048003    -0.03410
C1347       C  0.11051654  0.62293527  0.51480476     0.05200
C1348       C  0.08750531  0.63430552  0.54499636     0.03290
H1349       H  0.15762469  0.62551487  0.52876999     0.08400
H1350       H  0.06455463  0.63238861  0.53753264     0.07230
N1351       N  0.18244582  0.55999556  0.28528763    -0.27160
N1352       N  0.17412578  0.56227294  0.24102526    -0.35020
C1353       C  0.19803547  0.56204859  0.21366161     0.01180
C1354       C  0.22233298  0.55971399  0.24243026     0.07210
C1355       C  0.21158302  0.55836709  0.28751357    -0.05890
H1356       H  0.19774145  0.67616643  0.17600037     0.07880
H1357       H  0.22392403  0.55814799  0.31989056     0.09080
Cu1358     Cu  0.13040508  0.56925103  0.22220550     0.44170
Cu1359     Cu  0.15445868  0.56533529  0.34157836     0.41990
Cu1360     Cu  0.08104922  0.59596150  0.32398704     0.43880
N1361       N  0.08522439  0.57722981  0.21770326    -0.34540
N1362       N  0.06817291  0.58776556  0.25441579    -0.28800
C1363       C  0.04037191  0.58782934  0.24058207    -0.04900
C1364       C  0.03944070  0.57622782  0.19287536     0.07320
C1365       C  0.06839105  0.57012572  0.17941171     0.01110
H1366       H  0.02220634  0.59443205  0.26438443     0.08770
H1367       H  0.07659265  0.67019437  0.14501520     0.07840
N1368       N  0.09929052  0.59575445  0.39034574    -0.35990
N1369       N  0.12665647  0.58359378  0.39585596    -0.28170
C1370       C  0.13403938  0.58979428  0.44116912    -0.03410
C1371       C  0.11014167  0.60656385  0.46569040     0.05200
C1372       C  0.08825457  0.60975319  0.43261053     0.03290
H1373       H  0.15568347  0.58422353  0.45471107     0.08400
H1374       H  0.06670734  0.62354359  0.43818984     0.07230
N1375       N  0.67793023  0.63146954  0.78557202    -0.27160
N1376       N  0.66968844  0.63651443  0.74178735    -0.35020
C1377       C  0.69358280  0.64010545  0.71538379     0.01180
C1378       C  0.71769797  0.63733953  0.74442504     0.07210
C1379       C  0.70695980  0.63193906  0.78857555    -0.05890
H1380       H  0.69341744  0.64406864  0.67791603     0.07880
H1381       H  0.71928036  0.62741866  0.82033035     0.09080
Cu1382     Cu  0.62612544  0.63740322  0.72183695     0.44170
Cu1383     Cu  0.65025410  0.62084451  0.83877591     0.41990
Cu1384     Cu  0.57577742  0.61474095  0.82023277     0.43880
N1385       N  0.58092187  0.63761815  0.71716934    -0.34540
N1386       N  0.56370122  0.62909758  0.75217100    -0.28800
C1387       C  0.53602957  0.63367064  0.73838886    -0.04900
C1388       C  0.53531405  0.64625920  0.69279181     0.07320
C1389       C  0.56432675  0.64806524  0.68031599     0.01110
H1390       H  0.51772453  0.62881765  0.76082755     0.08770
H1391       H  0.57276299  0.65818318  0.64782927     0.07840
N1392       N  0.59450978  0.60293087  0.88508543    -0.35990
N1393       N  0.62287837  0.60505743  0.89002291    -0.28170
C1394       C  0.63074696  0.59475314  0.93290945    -0.03410
C1395       C  0.60616517  0.58587120  0.95707185     0.05200
C1396       C  0.58329742  0.59154350  0.92589811     0.03290
H1397       H  0.65291996  0.59389966  0.94545797     0.08400
H1398       H  0.56055000  0.58678680  0.93196107     0.07230
N1399       N  0.67978148  0.64483779  0.18122219    -0.27160
N1400       N  0.67181539  0.64647254  0.22604617    -0.35020
C1401       C  0.69598242  0.64452517  0.25266827     0.01180
C1402       C  0.72002561  0.64179474  0.22286939     0.07210
C1403       C  0.70888661  0.64202980  0.17796406    -0.05890
H1404       H  0.69606285  0.64612031  0.29082148     0.07880
H1405       H  0.72098211  0.64132181  0.14525068     0.09080
Cu1406     Cu  0.62827187  0.65408862  0.24759940     0.44170
Cu1407     Cu  0.65173723  0.65024807  0.12589628     0.41990
Cu1408     Cu  0.57807179  0.67039663  0.14616616     0.43880
N1409       N  0.58310728  0.66395339  0.25333047    -0.34540
N1410       N  0.56607193  0.66928603  0.21657477    -0.28800
C1411       C  0.53863743  0.67591502  0.23148394    -0.04900
C1412       C  0.53767540  0.67494530  0.28024161     0.07320
C1413       C  0.56650419  0.66719073  0.29283403     0.01110
H1414       H  0.52096538  0.57082879  0.20768170     0.08770
H1415       H  0.57494296  0.66479797  0.32808781     0.07840
N1416       N  0.59573574  0.56135582  0.07920717    -0.35990
N1417       N  0.62381317  0.66449824  0.07289214    -0.28170
C1418       C  0.63107485  0.55968158  0.02856176    -0.03410
C1419       C  0.60636589  0.57217830  0.00521344     0.05200
C1420       C  0.58411057  0.57276963  0.03826685     0.03290
H1421       H  0.65303326  0.55656499  0.01487147     0.08400
H1422       H  0.56167659  0.58269858  0.03367054     0.07230
C1423       C  0.48168320  0.56333977  0.59508323     0.03260
C1424       C  0.50759389  0.55030267  0.61789664    -0.12890
C1425       C  0.50881300  0.54876419  0.66723419     0.00760
C1426       C  0.48406057  0.56034847  0.69391062    -0.11410
C1427       C  0.45772343  0.57131942  0.67315544     0.03250
C1428       C  0.45683244  0.57360030  0.62388860    -0.10830
H1429       H  0.52678929  0.54083311  0.59739252     0.08850
H1430       H  0.48545338  0.56048839  0.73166156     0.06380
H1431       H  0.43662574  0.58341021  0.60885020     0.06220
C1432       C  0.48707639  0.58108792  0.38867466     0.03260
C1433       C  0.51223120  0.57151278  0.36030040    -0.12890
C1434       C  0.51133826  0.57208455  0.31082795     0.00760
C1435       C  0.48470604  0.58070954  0.28943929    -0.11410
C1436       C  0.45948703  0.59077120  0.31558464     0.03250
C1437       C  0.46081743  0.59153937  0.36507752    -0.10830
H1438       H  0.53264258  0.56318478  0.37576731     0.08850
H1439       H  0.48322638  0.57887965  0.25159362     0.06380
H1440       H  0.44126781  0.60039749  0.38496988     0.06220
N1441       N  0.29213584  0.57297268  0.18769878    -0.27160
N1442       N  0.30046428  0.57116159  0.23204409    -0.35020
C1443       C  0.27698703  0.56478457  0.25839607     0.01180
C1444       C  0.25295844  0.56265988  0.22896404     0.07210
C1445       C  0.26342966  0.56787329  0.18448607    -0.05890
H1446       H  0.27722071  0.56326283  0.29629901     0.07880
H1447       H  0.25097440  0.56955454  0.15235628     0.09080
Cu1448     Cu  0.34313571  0.58095073  0.25385631     0.44170
Cu1449     Cu  0.31878690  0.58692738  0.13388159     0.41990
Cu1450     Cu  0.39051251  0.61351492  0.15803265     0.43880
N1451       N  0.38694918  0.59425089  0.26206693    -0.34540
N1452       N  0.40310436  0.60649333  0.22767677    -0.28800
C1453       C  0.43041091  0.61008557  0.24316072    -0.04900
C1454       C  0.43212137  0.59903317  0.28931569     0.07320
C1455       C  0.40394614  0.58954382  0.30030128     0.01110
H1456       H  0.44807113  0.61851877  0.22128642     0.08770
H1457       H  0.39678611  0.57734003  0.33245111     0.07840
N1458       N  0.37260839  0.61673150  0.09095682    -0.35990
N1459       N  0.34539821  0.60718731  0.08349612    -0.28170
C1460       C  0.33790164  0.61441100  0.03931412    -0.03410
C1461       C  0.36159922  0.62882704  0.01710714     0.05200
C1462       C  0.38346256  0.62981174  0.05078266     0.03290
H1463       H  0.31649121  0.60998065  0.02472647     0.08400
H1464       H  0.40501105  0.64096979  0.04709820     0.07230
N1465       N  0.28809792  0.57809898  0.79589504    -0.27160
N1466       N  0.29655086  0.58123445  0.75192099    -0.35020
C1467       C  0.27278299  0.58224668  0.72436666     0.01180
C1468       C  0.24850673  0.57979443  0.75282961     0.07210
C1469       C  0.25904351  0.57735202  0.79784285    -0.05890
H1470       H  0.27319311  0.58364549  0.68645075     0.07880
H1471       H  0.24669822  0.57325348  0.82942711     0.09080
Cu1472     Cu  0.34032463  0.58172762  0.73308346     0.44170
Cu1473     Cu  0.31572917  0.56934955  0.85070170     0.41990
Cu1474     Cu  0.39053155  0.56825735  0.83604513     0.43880
N1475       N  0.38561679  0.58118379  0.72988394    -0.34540
N1476       N  0.40271834  0.57776424  0.76697859    -0.28800
C1477       C  0.43044194  0.57642074  0.75262892    -0.04900
C1478       C  0.43139966  0.57836932  0.70391420     0.07320
C1479       C  0.40235290  0.58170834  0.69086800     0.01110
H1480       H  0.44836106  0.57214620  0.77650230     0.08770
H1481       H  0.39387690  0.58235535  0.65542564     0.07840
N1482       N  0.37206280  0.55313908  0.89918103    -0.35990
N1483       N  0.34352077  0.55325265  0.90276999    -0.28170
C1484       C  0.33605086  0.65184332  0.94458653    -0.03410
C1485       C  0.36107029  0.64358752  0.96940362     0.05200
C1486       C  0.38374673  0.65190467  0.93971250     0.03290
H1487       H  0.31386237  0.64914691  0.95604072     0.08400
H1488       H  0.40678292  0.64849780  0.94663687     0.07230
C1489       C  0.48190293  0.56779155  0.54209757    -0.05990
C1490       C  0.50739658  0.58110832  0.52183319    -0.17120
C1491       C  0.51023112  0.58611370  0.47334500     0.11210
C1492       C  0.48675990  0.57755736  0.44190770    -0.05920
C1493       C  0.46130205  0.67525940  0.46224996    -0.17150
C1494       C  0.45836939  0.67068801  0.51077111     0.11240
S1495       S  0.54483550  0.49269395  0.45633055    -0.32120
S1496       S  0.42358245  0.65376704  0.52801385    -0.32120
H1497       H  0.43509146  0.63161947  0.56360137     0.29250
H1498       H  0.53310672  0.51441975  0.42053472     0.29240
H1499       H  0.52555951  0.58889395  0.54433110     0.19830
H1500       H  0.44324707  0.66682112  0.43985222     0.19840
C1501       C  0.98127775  0.56359603  0.93531996    -0.05990
C1502       C  0.00761598  0.66129855  0.95531294    -0.17120
C1503       C  0.01134373  0.65844914  0.00386599     0.11210
C1504       C  0.98771023  0.55760978  0.03554145    -0.05920
C1505       C  0.96145586  0.57137714  0.01560947    -0.17150
C1506       C  0.95761995  0.57388450  0.96700292     0.11240
S1507       S  0.04723823  0.64083324  0.02008857    -0.32120
S1508       S  0.92137691  0.59036157  0.95098392    -0.32120
H1509       H  0.92942922  0.60706643  0.91019814     0.29250
H1510       H  0.03767135  0.62115538  0.05797090     0.29240
H1511       H  0.02576622  0.65128538  0.93259801     0.19830
H1512       H  0.94333238  0.58139401  0.03837217     0.19840
N1513       N  0.78826282  0.74523841  0.68838118    -0.27160
N1514       N  0.79646101  0.74720338  0.73296565    -0.35020
C1515       C  0.77247930  0.74930847  0.76029995     0.01180
C1516       C  0.74836791  0.74876574  0.73099272     0.07210
C1517       C  0.75920322  0.74620309  0.68576556    -0.05890
H1518       H  0.77259539  0.75067262  0.79844901     0.07880
H1519       H  0.74699878  0.74387066  0.65323384     0.09080
Cu1520     Cu  0.84022673  0.74616806  0.75184633     0.44170
Cu1521     Cu  0.81627595  0.73714296  0.63291416     0.41990
Cu1522     Cu  0.89108653  0.72196725  0.64955509     0.43880
N1523       N  0.88548050  0.74679946  0.75496985    -0.34540
N1524       N  0.90299102  0.73759347  0.71845994    -0.28800
C1525       C  0.93047914  0.74325329  0.73176259    -0.04900
C1526       C  0.93066787  0.75723538  0.77882051     0.07320
C1527       C  0.90167905  0.75875234  0.79252135     0.01110
H1528       H  0.94884263  0.73819288  0.70807297     0.08770
H1529       H  0.89281768  0.76942362  0.82660956     0.07840
N1530       N  0.87224962  0.71285789  0.58386263    -0.35990
N1531       N  0.84396705  0.71903317  0.57910714    -0.28170
C1532       C  0.83625391  0.70880706  0.53478213    -0.03410
C1533       C  0.86090600  0.69569389  0.50989613     0.05200
C1534       C  0.88360280  0.69883905  0.54178358     0.03290
H1535       H  0.81412536  0.71011716  0.52204120     0.08400
H1536       H  0.90624369  0.69010673  0.53545625     0.07230
N1537       N  0.79077638  0.75356653  0.27859022    -0.27160
N1538       N  0.79903817  0.75503179  0.23418540    -0.35020
C1539       C  0.77503982  0.75423843  0.20695882     0.01180
C1540       C  0.75090024  0.75239708  0.23603728     0.07210
C1541       C  0.76177766  0.75200968  0.28104035    -0.05990
H1542       H  0.77509159  0.75576942  0.16905570     0.07880
H1543       H  0.74954827  0.75150104  0.31349111     0.09080
Cu1544     Cu  0.84282612  0.75959993  0.21460813     0.44170
Cu1545     Cu  0.81777077  0.75706844  0.33548276     0.41990
Cu1546     Cu  0.89108929  0.76836527  0.32002957     0.43880
N1547       N  0.88838701  0.76282251  0.21216784    -0.34540
N1548       N  0.90458874  0.76466854  0.25064098    -0.28800
C1549       C  0.93249912  0.76660913  0.23867113    -0.04900
C1550       C  0.93475759  0.76656384  0.19007866     0.07320
C1551       C  0.90615551  0.76393169  0.17432253     0.01110
H1552       H  0.94962926  0.76880888  0.26452259     0.08770
H1553       H  0.89871022  0.76390665  0.13822757     0.07840
N1554       N  0.87267159  0.66372849  0.38625670    -0.35990
N1555       N  0.84459162  0.77015119  0.39100789    -0.28170
C1556       C  0.83671002  0.66836239  0.43578838    -0.03410
C1557       C  0.86109296  0.67943770  0.46077097     0.05200
C1558       C  0.88374777  0.67601173  0.42850698     0.03290
H1559       H  0.81459637  0.66848446  0.44865881     0.08400
H1560       H  0.90602928  0.68399861  0.43458969     0.07230
C1561       C  0.98033289  0.67553416  0.88211001     0.03260
C1562       C  0.95578918  0.77478552  0.85573555    -0.12890
C1563       C  0.95632046  0.77061063  0.80642478     0.00760
C1564       C  0.98183066  0.77826842  0.78281173    -0.11410
C1565       C  0.00691746  0.67856903  0.80716878     0.03250
C1566       C  0.00574615  0.68388027  0.85671638    -0.10830
H1567       H  0.93611560  0.76799455  0.87280034     0.08850
H1568       H  0.98204425  0.77489522  0.74493120     0.06380
H1569       H  0.02483086  0.69399144  0.87544497     0.06220
C1570       C  0.98854801  0.66667851  0.08863642     0.03260
C1571       C  0.96299965  0.65802417  0.11350272    -0.12890
C1572       C  0.96196035  0.66106840  0.16310573     0.00760
C1573       C  0.98728853  0.67074310  0.18796036    -0.11410
C1574       C  0.01304485  0.67810265  0.16480684     0.03250
C1575       C  0.01339640  0.67648581  0.11550457    -0.10830
H1576       H  0.94377526  0.64904766  0.09436729     0.08850
H1577       H  0.98724394  0.67232473  0.22587206     0.06380
H1578       H  0.03325567  0.68341288  0.09904909     0.06220
N1579       N  0.17965029  0.67621300  0.69444384    -0.27160
N1580       N  0.17040186  0.68145013  0.73857826    -0.35020
C1581       C  0.19356675  0.68816706  0.76653750     0.01180
C1582       C  0.21817418  0.68733226  0.73816792     0.07210
C1583       C  0.20850382  0.67973608  0.69281445    -0.05890
H1584       H  0.19259444  0.69310470  0.80455057     0.07880
H1585       H  0.22149101  0.78697885  0.66096147     0.09080
Cu1586     Cu  0.12642790  0.67966153  0.75692656     0.44170
Cu1587     Cu  0.15401003  0.77310965  0.63789448     0.41990
Cu1588     Cu  0.07925693  0.77745481  0.65053287     0.43880
N1589       N  0.08088253  0.68085007  0.75813320    -0.34540
N1590       N  0.06496865  0.78910937  0.71937323    -0.28800
C1591       C  0.03684464  0.79034031  0.73115257    -0.04900
C1592       C  0.03424693  0.68231149  0.77989815     0.07320
C1593       C  0.06281201  0.68353636  0.79587741     0.01110
H1594       H  0.01979833  0.78743671  0.70522533     0.08770
H1595       H  0.07002494  0.68460004  0.83214405     0.07840
N1596       N  0.09874417  0.75863889  0.58680568    -0.35990
N1597       N  0.12731488  0.75638579  0.58360988    -0.28170
C1598       C  0.13531615  0.74145142  0.54048122    -0.03410
C1599       C  0.11051692  0.73404628  0.51480536     0.05200
C1600       C  0.08750525  0.74541555  0.54499651     0.03290
H1601       H  0.15762485  0.73662770  0.52877168     0.08400
H1602       H  0.06455470  0.74349774  0.53753226     0.07230
N1603       N  0.18244882  0.67110703  0.28528910    -0.27160
N1604       N  0.17412878  0.67338334  0.24102658    -0.35020
C1605       C  0.19803844  0.67315802  0.21366277     0.01180
C1606       C  0.22233594  0.67082389  0.24243142     0.07210
C1607       C  0.21158603  0.66947828  0.28751495    -0.05890
H1608       H  0.19773755  0.78727690  0.17599635     0.07880
H1609       H  0.22392708  0.66925978  0.31989193     0.09080
Cu1610     Cu  0.13040824  0.68036118  0.22220630     0.44170
Cu1611     Cu  0.15446165  0.67644794  0.34157988     0.41990
Cu1612     Cu  0.08105205  0.70707243  0.32398684     0.43880
N1613       N  0.08522769  0.68834029  0.21770330    -0.34540
N1614       N  0.06817609  0.69887649  0.25441554    -0.28800
C1615       C  0.04037516  0.69894048  0.24058150    -0.04900
C1616       C  0.03944413  0.68733858  0.19287489     0.07320
C1617       C  0.06839451  0.68123606  0.17941161     0.01110
H1618       H  0.02220954  0.70554355  0.26438366     0.08770
H1619       H  0.07658852  0.78130638  0.14501379     0.07840
N1620       N  0.09929267  0.70686554  0.39034593    -0.35990
N1621       N  0.12665872  0.69470565  0.39585687    -0.28170
C1622       C  0.13404103  0.70090615  0.44117030    -0.03410
C1623       C  0.11014282  0.71767491  0.46569095     0.05200
C1624       C  0.08825606  0.72086374  0.43261045     0.03290
H1625       H  0.15568504  0.69533596  0.45471289     0.08400
H1626       H  0.06670860  0.73465351  0.43818917     0.07230
N1627       N  0.67792870  0.74258233  0.78556801    -0.27160
N1628       N  0.66968687  0.74762628  0.74178316    -0.35020
C1629       C  0.69358122  0.75121669  0.71537935     0.01180
C1630       C  0.71769641  0.74845133  0.74442068     0.07210
C1631       C  0.70695826  0.74305184  0.78857143    -0.05890
H1632       H  0.69341586  0.75517904  0.67791141     0.07880
H1633       H  0.71927882  0.73853206  0.82032638     0.09080
Cu1634     Cu  0.62612373  0.74851453  0.72183332     0.44170
Cu1635     Cu  0.65025281  0.73195815  0.83877237     0.41990
Cu1636     Cu  0.57577639  0.72585242  0.82023074     0.43880
N1637       N  0.58092006  0.74872947  0.71716697    -0.34540
N1638       N  0.56369968  0.74020914  0.75216910    -0.28800
C1639       C  0.53602791  0.74478236  0.73838755    -0.04900
C1640       C  0.53531205  0.75737070  0.69279041     0.07320
C1641       C  0.56432465  0.75917648  0.68031392     0.01110
H1642       H  0.51772302  0.73992960  0.76082667     0.08770
H1643       H  0.57276064  0.76929419  0.64782691     0.07840
N1644       N  0.59450942  0.71404257  0.88508308    -0.35990
N1645       N  0.62287798  0.71617010  0.89001996    -0.28170
C1646       C  0.63074722  0.70586578  0.93290619    -0.03410
C1647       C  0.60616588  0.69698280  0.95706909     0.05200
C1648       C  0.58329772  0.70265452  0.92589593     0.03290
H1649       H  0.65292034  0.70501297  0.94545414     0.08400
H1650       H  0.56055048  0.69789695  0.93195939     0.07230
N1651       N  0.67977814  0.75594892  0.18122495    -0.27160
N1652       N  0.67181194  0.75758427  0.22604890    -0.35020
C1653       C  0.69597891  0.75563714  0.25267119     0.01180
C1654       C  0.72002216  0.75290624  0.22287241     0.07210
C1655       C  0.70888326  0.75314079  0.17796699    -0.05890
H1656       H  0.69605927  0.75723277  0.29082441     0.07880
H1657       H  0.72097883  0.75243233  0.14525364     0.09080
Cu1658     Cu  0.62826832  0.76520074  0.24760137     0.44170
Cu1659     Cu  0.65173412  0.76135872  0.12589877     0.41990
Cu1660     Cu  0.57806885  0.78150871  0.14616690     0.43880
N1661       N  0.58310368  0.77506543  0.25333119    -0.34540
N1662       N  0.56606859  0.78039810  0.21657518    -0.28800
C1663       C  0.53863396  0.78702684  0.23148378    -0.04900
C1664       C  0.53767159  0.78605689  0.28024136     0.07320
C1665       C  0.56650029  0.77830248  0.29283437     0.01110
H1666       H  0.52096845  0.68193803  0.20767936     0.08770
H1667       H  0.57493880  0.77590954  0.32808828     0.07840
N1668       N  0.59573816  0.67246626  0.07920439    -0.35990
N1669       N  0.62381072  0.77560909  0.07289392    -0.28170
C1670       C  0.63107680  0.67079365  0.02855829    -0.03410
C1671       C  0.60636739  0.68328958  0.00521055     0.05200
C1672       C  0.58411240  0.68387988  0.03826441     0.03290
H1673       H  0.65303512  0.66767798  0.01486752     0.08400
H1674       H  0.56167819  0.69380801  0.03366864     0.07230
C1675       C  0.48168484  0.67445055  0.59508080     0.03260
C1676       C  0.50759549  0.66141368  0.61789451    -0.12890
C1677       C  0.50881434  0.65987506  0.66723207     0.00760
C1678       C  0.48406176  0.67145914  0.69390817    -0.11410
C1679       C  0.45772462  0.68242958  0.67315270     0.03250
C1680       C  0.45683383  0.68471031  0.62388585    -0.10830
H1681       H  0.52679106  0.65194444  0.59739064     0.08850
H1682       H  0.48545446  0.67159934  0.73165914     0.06380
H1683       H  0.43662705  0.69451944  0.60884728     0.06220
C1684       C  0.48707943  0.69219877  0.38867230     0.03260
C1685       C  0.51223438  0.68262342  0.36029830    -0.12890
C1686       C  0.51134149  0.68319454  0.31082570     0.00760
C1687       C  0.48470923  0.69181903  0.28943681    -0.11410
C1688       C  0.45949021  0.70188098  0.31558195     0.03250
C1689       C  0.46082054  0.70264988  0.36507482    -0.10830
H1690       H  0.53264577  0.67429564  0.37576553     0.08850
H1691       H  0.48322953  0.68998860  0.25159115     0.06380
H1692       H  0.44127089  0.71150830  0.38496694     0.06220
N1693       N  0.29213862  0.68408060  0.18769861    -0.27160
N1694       N  0.30046728  0.68227014  0.23204387    -0.35020
C1695       C  0.27699012  0.67589383  0.25839641     0.01180
C1696       C  0.25296138  0.67376897  0.22896474     0.07210
C1697       C  0.26343240  0.67898150  0.18448643    -0.05890
H1698       H  0.27722396  0.67437281  0.29629944     0.07880
H1699       H  0.25097698  0.68066252  0.15235679     0.09080
Cu1700     Cu  0.34313882  0.69205952  0.25385511     0.44170
Cu1701     Cu  0.31878930  0.69803482  0.13388084     0.41990
Cu1702     Cu  0.39051493  0.72462329  0.15803032     0.43880
N1703       N  0.38695226  0.70535990  0.26206480    -0.34540
N1704       N  0.40310728  0.71760198  0.22767423    -0.28800
C1705       C  0.43041391  0.72119438  0.24315780    -0.04900
C1706       C  0.43212452  0.71014249  0.28931296     0.07320
C1707       C  0.40394936  0.70065329  0.30029905     0.01110
H1708       H  0.44807404  0.72962736  0.22128319     0.08770
H1709       H  0.39678946  0.68844990  0.33244919     0.07840
N1710       N  0.37260996  0.72784039  0.09095519    -0.35990
N1711       N  0.34539979  0.71829587  0.08349511    -0.28170
C1712       C  0.33790259  0.72552017  0.03931356    -0.03410
C1713       C  0.36159976  0.73993692  0.01710623     0.05200
C1714       C  0.38346350  0.74092146  0.05078104     0.03290
H1715       H  0.31649203  0.72108971  0.02472648     0.08400
H1716       H  0.40501183  0.75207994  0.04709616     0.07230
N1717       N  0.28809898  0.68921107  0.79589234    -0.27160
N1718       N  0.29655183  0.69234602  0.75191814    -0.35020
C1719       C  0.27278390  0.69335802  0.72436395     0.01180
C1720       C  0.24850769  0.69090613  0.75282713     0.07210
C1721       C  0.25904457  0.68846420  0.79784037    -0.05890
H1722       H  0.27319393  0.69475631  0.68644797     0.07880
H1723       H  0.24669935  0.68436595  0.82942478     0.09080
Cu1724     Cu  0.34032558  0.69283853  0.73308019     0.44170
Cu1725     Cu  0.31573025  0.68046176  0.85069898     0.41990
Cu1726     Cu  0.39053242  0.67936694  0.83604189     0.43880
N1727       N  0.38561778  0.69229400  0.72988072    -0.34540
N1728       N  0.40271924  0.68887392  0.76697539    -0.28800
C1729       C  0.43044287  0.68753019  0.75262587    -0.04900
C1730       C  0.43140073  0.68947920  0.70391123     0.07320
C1731       C  0.40235400  0.69281869  0.69086490     0.01110
H1732       H  0.44836188  0.68325523  0.77649934     0.08770
H1733       H  0.39387808  0.69346624  0.65542253     0.07840
N1734       N  0.37206364  0.66424935  0.89917806    -0.35990
N1735       N  0.34352159  0.66436391  0.90276720    -0.28170
C1736       C  0.33605047  0.76295389  0.94458675    -0.03410
C1737       C  0.36107019  0.75469803  0.96940309     0.05200
C1738       C  0.38374628  0.76301595  0.93971176     0.03290
H1739       H  0.31386211  0.76025698  0.95604136     0.08400
H1740       H  0.40678255  0.75960927  0.94663556     0.07230
C1741       C  0.48190485  0.67890285  0.54209523    -0.05990
C1742       C  0.50739857  0.69221994  0.52183135    -0.17120
C1743       C  0.51023346  0.69722532  0.47334320     0.11210
C1744       C  0.48676253  0.68866868  0.44190543    -0.05920
C1745       C  0.46129842  0.78636888  0.46224932    -0.17150
C1746       C  0.45836609  0.78179756  0.51077055     0.11240
S1747       S  0.54483361  0.60380466  0.45632913    -0.32120
S1748       S  0.42357915  0.76487704  0.52801395    -0.32120
H1749       H  0.43508812  0.74273014  0.56360199     0.29250
H1750       H  0.53310440  0.62553024  0.42053339     0.29240
H1751       H  0.52556135  0.70000557  0.54432960     0.19830
H1752       H  0.44324330  0.77793060  0.43985187     0.19840
C1753       C  0.98128029  0.67470585  0.93531957    -0.05990
C1754       C  0.00761250  0.77241126  0.95531296    -0.17120
C1755       C  0.01133981  0.76956185  0.00386604     0.11210
C1756       C  0.98771368  0.66871941  0.03554086    -0.05920
C1757       C  0.96145916  0.68248694  0.01560946    -0.17150
C1758       C  0.95762283  0.68499435  0.96700309     0.11240
S1759       S  0.04723384  0.75194490  0.02008947    -0.32120
S1760       S  0.92137988  0.70147208  0.95098477    -0.32120
H1761       H  0.92943319  0.71817817  0.91020042     0.29250
H1762       H  0.03766528  0.73226669  0.05797038     0.29240
H1763       H  0.02576290  0.76239791  0.93259850     0.19830
H1764       H  0.94333591  0.69250414  0.03837250     0.19840
N1765       N  0.78826323  0.85634983  0.68838393    -0.27160
N1766       N  0.79646154  0.85831450  0.73296833    -0.35020
C1767       C  0.77247990  0.86041939  0.76030280     0.01180
C1768       C  0.74836843  0.85987685  0.73099573     0.07210
C1769       C  0.75920362  0.85731450  0.68576851    -0.05890
H1770       H  0.77259609  0.86178329  0.79845185     0.07880
H1771       H  0.74699911  0.85498227  0.65323686     0.09080
Cu1772     Cu  0.84022740  0.85727911  0.75184842     0.44170
Cu1773     Cu  0.81627611  0.84825472  0.63291662     0.41990
Cu1774     Cu  0.89108669  0.83307884  0.64955602     0.43880
N1775       N  0.88548121  0.85791074  0.75497111    -0.34540
N1776       N  0.90299153  0.84870504  0.71846085    -0.28800
C1777       C  0.93047971  0.85436494  0.73176316    -0.04900
C1778       C  0.93066870  0.86834676  0.77882118     0.07320
C1779       C  0.90167996  0.86986348  0.79252245     0.01110
H1780       H  0.94884309  0.84930471  0.70807326     0.08770
H1781       H  0.89281879  0.88053444  0.82661089     0.07840
N1782       N  0.87224928  0.82396939  0.58386380    -0.35990
N1783       N  0.84396668  0.83014484  0.57910896    -0.28170
C1784       C  0.83625310  0.81991874  0.53478416    -0.03410
C1785       C  0.86090491  0.80680536  0.50989755     0.05200
C1786       C  0.88360202  0.80995041  0.54178446     0.03290
H1787       H  0.81412442  0.82122897  0.52204380     0.08400
H1788       H  0.90624284  0.80121794  0.53545658     0.07230
N1789       N  0.79077781  0.86467769  0.27858898    -0.27160
N1790       N  0.79903969  0.86614301  0.23418421    -0.35020
C1791       C  0.77504138  0.86534964  0.20695751     0.01180
C1792       C  0.75090176  0.86350821  0.23603585     0.07210
C1793       C  0.76177910  0.86312078  0.28103897    -0.05990
H1794       H  0.77509322  0.86688065  0.16905439     0.07880
H1795       H  0.74954966  0.86261207  0.31348967     0.09080
Cu1796     Cu  0.84282773  0.87071119  0.21460732     0.44170
Cu1797     Cu  0.81777206  0.86817957  0.33548165     0.41990
Cu1798     Cu  0.89109062  0.87947655  0.32002919     0.43880
N1799       N  0.88838865  0.87393380  0.21216742    -0.34540
N1800       N  0.90459028  0.87577985  0.25064068    -0.28800
C1801       C  0.93250069  0.87772046  0.23867101    -0.04900
C1802       C  0.93475929  0.87767517  0.19007856     0.07320
C1803       C  0.90615725  0.87504298  0.17432223     0.01110
H1804       H  0.94963078  0.87992017  0.26452257     0.08770
H1805       H  0.89871206  0.87501790  0.13822722     0.07840
N1806       N  0.87266914  0.77483971  0.38625780    -0.35990
N1807       N  0.84459269  0.88126231  0.39100704    -0.28170
C1808       C  0.83670805  0.77947415  0.43579040    -0.03410
C1809       C  0.86109131  0.79054914  0.46077237     0.05200
C1810       C  0.88374579  0.78712282  0.42850778     0.03290
H1811       H  0.81459451  0.77959654  0.44866139     0.08400
H1812       H  0.90602743  0.79510936  0.43458990     0.07230
C1813       C  0.98033007  0.78664606  0.88210931     0.03260
C1814       C  0.95579061  0.88589622  0.85573600    -0.12890
C1815       C  0.95632145  0.88172184  0.80642522     0.00760
C1816       C  0.98183147  0.88937993  0.78281184    -0.11410
C1817       C  0.00691540  0.78967972  0.80716845     0.03250
C1818       C  0.00574363  0.79499169  0.85671602    -0.10830
H1819       H  0.93611703  0.87910500  0.87280140     0.08850
H1820       H  0.98204473  0.88600727  0.74493131     0.06380
H1821       H  0.02482820  0.80510309  0.87544482     0.06220
C1822       C  0.98854367  0.77779082  0.08863599     0.03260
C1823       C  0.96299541  0.76913604  0.11350227    -0.12890
C1824       C  0.96195641  0.77217925  0.16310537     0.00760
C1825       C  0.98728476  0.78185335  0.18795991    -0.11410
C1826       C  0.01304084  0.78921378  0.16480634     0.03250
C1827       C  0.01339205  0.78759806  0.11550414    -0.10830
H1828       H  0.94377091  0.76016002  0.09436681     0.08850
H1829       H  0.98724051  0.78343399  0.22587159     0.06380
H1830       H  0.03325109  0.79452579  0.09904861     0.06220
N1831       N  0.17964872  0.78732511  0.69444555    -0.27160
N1832       N  0.17040022  0.79256184  0.73857995    -0.35020
C1833       C  0.19356508  0.79927870  0.76653932     0.01180
C1834       C  0.21817253  0.79844425  0.73816978     0.07210
C1835       C  0.20850222  0.79084835  0.69281626    -0.05890
H1836       H  0.19259274  0.80421605  0.80455241     0.07880
H1837       H  0.22149146  0.89808910  0.66095847     0.09080
Cu1838     Cu  0.12642619  0.79077272  0.75692779     0.44170
Cu1839     Cu  0.15401035  0.88421942  0.63789212     0.41990
Cu1840     Cu  0.07925721  0.88856556  0.65053177     0.43880
N1841       N  0.08088079  0.79196060  0.75813375    -0.34540
N1842       N  0.06496922  0.90022025  0.71937222    -0.28800
C1843       C  0.03684528  0.90145112  0.73115193    -0.04900
C1844       C  0.03424507  0.79342186  0.77989812     0.07320
C1845       C  0.06281005  0.79464722  0.79587773     0.01110
H1846       H  0.01979886  0.89854730  0.70522492     0.08770
H1847       H  0.07002277  0.79571155  0.83214450     0.07840
N1848       N  0.09874399  0.86974940  0.58680432    -0.35990
N1849       N  0.12731468  0.86749588  0.58360798    -0.28170
C1850       C  0.13531553  0.85256162  0.54047906    -0.03410
C1851       C  0.11051604  0.84515699  0.51480365     0.05200
C1852       C  0.08750467  0.85652643  0.54499531     0.03290
H1853       H  0.15762411  0.84773771  0.52876902     0.08400
H1854       H  0.06455404  0.85460909  0.53753148     0.07230
N1855       N  0.18244552  0.78221776  0.28528536    -0.27160
N1856       N  0.17412522  0.78449436  0.24102301    -0.35020
C1857       C  0.19803473  0.78426848  0.21365874     0.01180
C1858       C  0.22233240  0.78193363  0.24242695     0.07210
C1859       C  0.21158274  0.78058823  0.28751066    -0.05890
H1860       H  0.19773922  0.89838695  0.17599744     0.07880
H1861       H  0.22392399  0.78036930  0.31988741     0.09080
Cu1862     Cu  0.13040452  0.79147295  0.22220385     0.44170
Cu1863     Cu  0.15445880  0.78755917  0.34157665     0.41990
Cu1864     Cu  0.08104892  0.81818333  0.32398574     0.43880
N1865       N  0.08522390  0.79945174  0.21770193    -0.34540
N1866       N  0.06817248  0.80998740  0.25441455    -0.28800
C1867       C  0.04037146  0.81005111  0.24058093    -0.04900
C1868       C  0.03944021  0.79844962  0.19287422     0.07320
C1869       C  0.06839053  0.79234763  0.17941045     0.01110
H1870       H  0.02220592  0.81665376  0.26438337     0.08770
H1871       H  0.07659033  0.89241721  0.14501434     0.07840
N1872       N  0.09929038  0.81797680  0.39034435    -0.35990
N1873       N  0.12665653  0.80581703  0.39585443    -0.28170
C1874       C  0.13403939  0.81201748  0.44116762    -0.03410
C1875       C  0.11014143  0.82878606  0.46568907     0.05200
C1876       C  0.08825426  0.83197489  0.43260925     0.03290
H1877       H  0.15568356  0.80644723  0.45470953     0.08400
H1878       H  0.06670678  0.84576443  0.43818872     0.07230
N1879       N  0.67792915  0.85369288  0.78557072    -0.27160
N1880       N  0.66968740  0.85873718  0.74178591    -0.35020
C1881       C  0.69358180  0.86232786  0.71538231     0.01180
C1882       C  0.71769693  0.85956233  0.74442370     0.07210
C1883       C  0.70695871  0.85416245  0.78857432    -0.05890
H1884       H  0.69341648  0.86629049  0.67791442     0.07880
H1885       H  0.71927923  0.84964243  0.82032925     0.09080
Cu1886     Cu  0.62612437  0.85962548  0.72183553     0.44170
Cu1887     Cu  0.65025306  0.84306826  0.83877470     0.41990
Cu1888     Cu  0.57577652  0.83696307  0.82023159     0.43880
N1889       N  0.58092076  0.85984018  0.71716810    -0.34540
N1890       N  0.56370017  0.85131962  0.75216984    -0.28800
C1891       C  0.53602849  0.85589267  0.73838782    -0.04900
C1892       C  0.53531289  0.86848116  0.69279076     0.07320
C1893       C  0.56432557  0.87028721  0.68031480     0.01110
H1894       H  0.51772348  0.85103973  0.76082660     0.08770
H1895       H  0.57276174  0.88040516  0.64782804     0.07840
N1896       N  0.59450909  0.82515330  0.88508419    -0.35990
N1897       N  0.62287764  0.82728052  0.89002165    -0.28170
C1898       C  0.63074642  0.81697623  0.93290809    -0.03410
C1899       C  0.60616480  0.80809362  0.95707045     0.05200
C1900       C  0.58329695  0.81376551  0.92589681     0.03290
H1901       H  0.65291944  0.81612319  0.94545655     0.08400
H1902       H  0.56054962  0.80900821  0.93195978     0.07230
N1903       N  0.67977963  0.86705993  0.18122351    -0.27160
N1904       N  0.67181347  0.86869510  0.22604747    -0.35020
C1905       C  0.69598045  0.86674798  0.25266972     0.01180
C1906       C  0.72002369  0.86401727  0.22287092     0.07210
C1907       C  0.70888476  0.86425192  0.17796552    -0.05890
H1908       H  0.69606082  0.86834349  0.29082293     0.07880
H1909       H  0.72098031  0.86354363  0.14525216     0.09080
Cu1910     Cu  0.62826989  0.87631139  0.24760020     0.44170
Cu1911     Cu  0.65173551  0.87246982  0.12589743     0.41990
Cu1912     Cu  0.57807023  0.89262001  0.14616639     0.43880
N1913       N  0.58310530  0.88617631  0.25333055    -0.34540
N1914       N  0.56607012  0.89150933  0.21657474    -0.28800
C1915       C  0.53863556  0.89813824  0.23148359    -0.04900
C1916       C  0.53767331  0.89716796  0.28024114     0.07320
C1917       C  0.56650203  0.88941326  0.29283388     0.01110
H1918       H  0.52096510  0.79304975  0.20767891     0.08770
H1919       H  0.57494062  0.88702002  0.32808768     0.07840
N1920       N  0.59573574  0.78357768  0.07920552    -0.35990
N1921       N  0.62381185  0.88672020  0.07289290    -0.28170
C1922       C  0.63107484  0.78190421  0.02856020    -0.03410
C1923       C  0.60636574  0.79440051  0.00521191     0.05200
C1924       C  0.58411045  0.79499136  0.03826527     0.03290
H1925       H  0.65303326  0.77878810  0.01486992     0.08400
H1926       H  0.56167638  0.80491994  0.03366898     0.07230
C1927       C  0.48168209  0.78556090  0.59507993     0.03260
C1928       C  0.50759292  0.77252437  0.61789340    -0.12890
C1929       C  0.50881215  0.77098639  0.66723100     0.00760
C1930       C  0.48405976  0.78257085  0.69390741    -0.11410
C1931       C  0.45772247  0.79354105  0.67315218     0.03250
C1932       C  0.45683130  0.79582110  0.62388527    -0.10830
H1933       H  0.52678835  0.76305491  0.59738930     0.08850
H1934       H  0.48545274  0.78271153  0.73165840     0.06380
H1935       H  0.43662441  0.80563014  0.60884682     0.06220
C1936       C  0.48707525  0.80330873  0.38867136     0.03260
C1937       C  0.51223022  0.79373397  0.36029741    -0.12890
C1938       C  0.51133748  0.79430559  0.31082497     0.00760
C1939       C  0.48470528  0.80292990  0.28943593    -0.11410
C1940       C  0.45948607  0.81299103  0.31558095     0.03250
C1941       C  0.46081627  0.81375951  0.36507387    -0.10830
H1942       H  0.53264161  0.78540643  0.37576455     0.08850
H1943       H  0.48322579  0.80109984  0.25159024     0.06380
H1944       H  0.44126650  0.82261734  0.38496598     0.06220
N1945       N  0.29213520  0.79518922  0.18769382    -0.27160
N1946       N  0.30046389  0.79337789  0.23203899    -0.35020
C1947       C  0.27698668  0.78700174  0.25839145     0.01180
C1948       C  0.25295786  0.78487788  0.22895991     0.07210
C1949       C  0.26342888  0.79009082  0.18448169    -0.05890
H1950       H  0.27722055  0.78548028  0.29629442     0.07880
H1951       H  0.25097339  0.79177273  0.15235222     0.09080
Cu1952     Cu  0.34313538  0.80316646  0.25385090     0.44170
Cu1953     Cu  0.31878603  0.80914398  0.13387636     0.41990
Cu1954     Cu  0.39051162  0.83573225  0.15802820     0.43880
N1955       N  0.38694853  0.81646783  0.26206218    -0.34540
N1956       N  0.40310358  0.82871093  0.22767226    -0.28800
C1957       C  0.43040995  0.83230433  0.24315662    -0.04900
C1958       C  0.43212041  0.82125200  0.28931163     0.07320
C1959       C  0.40394538  0.81176145  0.30029679     0.01110
H1960       H  0.44807007  0.84073826  0.22128262     0.08770
H1961       H  0.39678546  0.79955741  0.33244653     0.07840
N1962       N  0.37260728  0.83894996  0.09095274    -0.35990
N1963       N  0.34539715  0.82940562  0.08349172    -0.28170
C1964       C  0.33790042  0.83663071  0.03931018    -0.03410
C1965       C  0.36159788  0.85104774  0.01710387     0.05200
C1966       C  0.38346127  0.85203162  0.05077925     0.03290
H1967       H  0.31648998  0.83220066  0.02472243     0.08400
H1968       H  0.40500965  0.86319017  0.04709526     0.07230
N1969       N  0.28809743  0.80032320  0.79589391    -0.27160
N1970       N  0.29655015  0.80345838  0.75191968    -0.35020
C1971       C  0.27278216  0.80447038  0.72436565     0.01180
C1972       C  0.24850603  0.80201825  0.75282894     0.07210
C1973       C  0.25904303  0.79957617  0.79784210    -0.05890
H1974       H  0.27319210  0.80586882  0.68644969     0.07880
H1975       H  0.24669789  0.79547769  0.82942653     0.09080
Cu1976     Cu  0.34032380  0.80395111  0.73308126     0.44170
Cu1977     Cu  0.31572888  0.79157366  0.85070027     0.41990
Cu1978     Cu  0.39053104  0.79047970  0.83604200     0.43880
N1979       N  0.38561596  0.80340647  0.72988107    -0.34540
N1980       N  0.40271759  0.79998649  0.76697552    -0.28800
C1981       C  0.43044115  0.79864242  0.75262567    -0.04900
C1982       C  0.43139877  0.80059112  0.70391099     0.07320
C1983       C  0.40235199  0.80393077  0.69086500     0.01110
H1984       H  0.44836026  0.79436735  0.77649892     0.08770
H1985       H  0.39387590  0.80457812  0.65542273     0.07840
N1986       N  0.37206274  0.77536115  0.89917792    -0.35990
N1987       N  0.34352072  0.77547530  0.90276760    -0.28170
C1988       C  0.33604943  0.87406680  0.94458464    -0.03410
C1989       C  0.36106887  0.86580979  0.96940118     0.05200
C1990       C  0.38374532  0.87412720  0.93971030     0.03290
H1991       H  0.31386093  0.87137040  0.95603882     0.08400
H1992       H  0.40678151  0.87071942  0.94663426     0.07230
C1993       C  0.48190174  0.79001261  0.54209426    -0.05990
C1994       C  0.50739528  0.80332975  0.52182994    -0.17120
C1995       C  0.51022982  0.80833508  0.47334178     0.11210
C1996       C  0.48675869  0.79977837  0.44190441    -0.05920
C1997       C  0.46130023  0.89748061  0.46224927    -0.17150
C1998       C  0.45836777  0.89290924  0.51077044     0.11240
S1999       S  0.54483614  0.71491601  0.45632789    -0.32120
S2000       S  0.42358090  0.87598830  0.52801355    -0.32120
H2001       H  0.43509004  0.85384126  0.56360137     0.29250
H2002       H  0.53310745  0.73664120  0.42053147     0.29240
H2003       H  0.52555811  0.81111574  0.54432791     0.19830
H2004       H  0.44324522  0.88904210  0.43985168     0.19840
C2005       C  0.98127696  0.78581838  0.93531898    -0.05990
C2006       C  0.00761435  0.88352144  0.95531290    -0.17120
C2007       C  0.01134183  0.88067205  0.00386599     0.11210
C2008       C  0.98770954  0.77983203  0.03554044    -0.05920
C2009       C  0.96145516  0.79359948  0.01560857    -0.17150
C2010       C  0.95761920  0.79610687  0.96700203     0.11240
S2011       S  0.04723617  0.86305587  0.02008903    -0.32120
S2012       S  0.92137611  0.81258382  0.95098318    -0.32120
H2013       H  0.92942830  0.82928857  0.91019729     0.29250
H2014       H  0.03766893  0.84337831  0.05797134     0.29240
H2015       H  0.02576471  0.87350822  0.93259825     0.19830
H2016       H  0.94333172  0.80361635  0.03837134     0.19840
N2017       N  0.78826323  0.96746080  0.68838280    -0.27160
N2018       N  0.79646148  0.96942561  0.73296724    -0.35020
C2019       C  0.77247979  0.97153061  0.76030162     0.01180
C2020       C  0.74836837  0.97098800  0.73099445     0.07210
C2021       C  0.75920363  0.96842550  0.68576727    -0.05890
H2022       H  0.77259592  0.97289463  0.79845067     0.07880
H2023       H  0.74699916  0.96609318  0.65323558     0.09080
Cu2024     Cu  0.84022728  0.96839024  0.75184761     0.44170
Cu2025     Cu  0.81627623  0.95936552  0.63291564     0.41990
Cu2026     Cu  0.89108679  0.94418973  0.64955564     0.43880
N2027       N  0.88548108  0.96902181  0.75497061    -0.34540
N2028       N  0.90299147  0.95981599  0.71846049    -0.28800
C2029       C  0.93047963  0.96547589  0.73176293    -0.04900
C2030       C  0.93066852  0.97945782  0.77882092     0.07320
C2031       C  0.90167974  0.98097462  0.79252202     0.01110
H2032       H  0.94884305  0.96041557  0.70807315     0.08770
H2033       H  0.89281849  0.99164570  0.82661037     0.07840
N2034       N  0.87224958  0.93508027  0.58386331    -0.35990
N2035       N  0.84396699  0.94125564  0.57910823    -0.28170
C2036       C  0.83625357  0.93102956  0.53478334    -0.03410
C2037       C  0.86090549  0.91791628  0.50989695     0.05200
C2038       C  0.88360248  0.92106136  0.54178407     0.03290
H2039       H  0.81412494  0.93233976  0.52204277     0.08400
H2040       H  0.90624333  0.91232897  0.53545637     0.07230
N2041       N  0.79077750  0.97578886  0.27858924    -0.27160
N2042       N  0.79903935  0.97725418  0.23418446    -0.35020
C2043       C  0.77504102  0.97646085  0.20695781     0.01180
C2044       C  0.75090141  0.97461944  0.23603619     0.07210
C2045       C  0.76177879  0.97423198  0.28103929    -0.05990
H2046       H  0.77509282  0.97799187  0.16905469     0.07880
H2047       H  0.74954937  0.97372328  0.31349001     0.09080
Cu2048     Cu  0.84282739  0.98182232  0.21460748     0.44170
Cu2049     Cu  0.81777181  0.97929068  0.33548185     0.41990
Cu2050     Cu  0.89109036  0.99058765  0.32002926     0.43880
N2051       N  0.88838832  0.98504491  0.21216751    -0.34540
N2052       N  0.90458997  0.98689096  0.25064074    -0.28800
C2053       C  0.93250039  0.98883155  0.23867104    -0.04900
C2054       C  0.93475896  0.98878624  0.19007859     0.07320
C2055       C  0.90615691  0.98615406  0.17432229     0.01110
H2056       H  0.94963049  0.99103127  0.26452258     0.08770
H2057       H  0.89871171  0.98612898  0.13822729     0.07840
N2058       N  0.87267022  0.88595089  0.38625725    -0.35990
N2059       N  0.84459247  0.99237338  0.39100720    -0.28170
C2060       C  0.83670894  0.89058517  0.43578949    -0.03410
C2061       C  0.86109209  0.90166015  0.46077174     0.05200
C2062       C  0.88374670  0.89823393  0.42850738     0.03290
H2063       H  0.81459535  0.89070748  0.44866024     0.08400
H2064       H  0.90602831  0.90622050  0.43458976     0.07230
C2065       C  0.98033163  0.89775652  0.88210948     0.03260
C2066       C  0.95579022  0.99700750  0.85573583    -0.12890
C2067       C  0.95632122  0.99283294  0.80642505     0.00760
C2068       C  0.98183130  0.00049088  0.78281178    -0.11410
C2069       C  0.00691643  0.90079078  0.80716826     0.03250
C2070       C  0.00574503  0.90610227  0.85671589    -0.10830
H2071       H  0.93611663  0.99021648  0.87280096     0.08850
H2072       H  0.98204466  0.99711810  0.74493125     0.06380
H2073       H  0.02482975  0.91621339  0.87544449     0.06220
C2074       C  0.98854572  0.88890130  0.08863612     0.03260
C2075       C  0.96299738  0.88024676  0.11350236    -0.12890
C2076       C  0.96195818  0.88329053  0.16310543     0.00760
C2077       C  0.98728643  0.89296498  0.18796006    -0.11410
C2078       C  0.01304263  0.90032499  0.16480655     0.03250
C2079       C  0.01339404  0.89870872  0.11550432    -0.10830
H2080       H  0.94377296  0.87127044  0.09436689     0.08850
H2081       H  0.98724198  0.89454615  0.22587175     0.06380
H2082       H  0.03325317  0.90563623  0.09904884     0.06220
N2083       N  0.17964923  0.89843556  0.69444283    -0.27160
N2084       N  0.17040082  0.90367290  0.73857725    -0.35020
C2085       C  0.19356571  0.91039031  0.76653636     0.01180
C2086       C  0.21817309  0.90955558  0.73816668     0.07210
C2087       C  0.20850272  0.90195895  0.69281330    -0.05890
H2088       H  0.19259342  0.91532825  0.80454941     0.07880
H2089       H  0.22149153  0.00920056  0.66095978     0.09080
Cu2090     Cu  0.12642692  0.90188389  0.75692576     0.44170
Cu2091     Cu  0.15401049  0.99533092  0.63789308     0.41990
Cu2092     Cu  0.07925735  0.99967644  0.65053219     0.43880
N2093       N  0.08088155  0.90307168  0.75813251    -0.34540
N2094       N  0.06496920  0.01133115  0.71937256    -0.28800
C2095       C  0.03684523  0.01256195  0.73115211    -0.04900
C2096       C  0.03424595  0.90453288  0.77989752     0.07320
C2097       C  0.06281101  0.90575838  0.79587674     0.01110
H2098       H  0.01979888  0.00965803  0.70522500     0.08770
H2099       H  0.07002393  0.90682288  0.83214340     0.07840
N2100       N  0.09874436  0.98086042  0.58680486    -0.35990
N2101       N  0.12731506  0.97860715  0.58360875    -0.28170
C2102       C  0.13531610  0.96367291  0.54047992    -0.03410
C2103       C  0.11051673  0.95626804  0.51480430     0.05200
C2104       C  0.08750522  0.96763732  0.54499577     0.03290
H2105       H  0.15762473  0.95884917  0.52877007     0.08400
H2106       H  0.06455462  0.96571976  0.53753174     0.07230
N2107       N  0.18244706  0.89332849  0.28528651    -0.27160
N2108       N  0.17412682  0.89560490  0.24102411    -0.35020
C2109       C  0.19803636  0.89537873  0.21365988     0.01180
C2110       C  0.22233400  0.89304389  0.24242815     0.07210
C2111       C  0.21158428  0.89169879  0.28751187    -0.05890
H2112       H  0.19773902  0.00949791  0.17599700     0.07880
H2113       H  0.22392550  0.89147998  0.31988867     0.09080
Cu2114     Cu  0.13040618  0.90258362  0.22220470     0.44170
Cu2115     Cu  0.15446025  0.89867030  0.34157773     0.41990
Cu2116     Cu  0.08105040  0.92929438  0.32398619     0.43880
N2117       N  0.08522560  0.91056269  0.21770247    -0.34540
N2118       N  0.06817412  0.92109852  0.25441497    -0.28800
C2119       C  0.04037314  0.92116240  0.24058121    -0.04900
C2120       C  0.03944196  0.90956083  0.19287451     0.07320
C2121       C  0.06839229  0.90345861  0.17941091     0.01110
H2122       H  0.02220757  0.92776519  0.26438356     0.08770
H2123       H  0.07659003  0.00352821  0.14501411     0.07840
N2124       N  0.09929161  0.92908776  0.39034492    -0.35990
N2125       N  0.12665775  0.91692808  0.39585526    -0.28170
C2126       C  0.13404041  0.92312853  0.44116855    -0.03410
C2127       C  0.11014233  0.93989704  0.46568975     0.05200
C2128       C  0.08825529  0.94308580  0.43260971     0.03290
H2129       H  0.15568453  0.91755837  0.45471069     0.08400
H2130       H  0.06670778  0.95687529  0.43818895     0.07230
N2131       N  0.67792910  0.96480435  0.78556950    -0.27160
N2132       N  0.66968733  0.96984844  0.74178465    -0.35020
C2133       C  0.69358172  0.97343897  0.71538098     0.01180
C2134       C  0.71769686  0.97067356  0.74442238     0.07210
C2135       C  0.70695865  0.96527390  0.78857305    -0.05890
H2136       H  0.69341640  0.97740143  0.67791306     0.07880
H2137       H  0.71927918  0.96075401  0.82032801     0.09080
Cu2138     Cu  0.62612425  0.97073664  0.72183446     0.44170
Cu2139     Cu  0.65025309  0.95417992  0.83877362     0.41990
Cu2140     Cu  0.57577665  0.94807414  0.82023102     0.43880
N2141       N  0.58092061  0.97095130  0.71716749    -0.34540
N2142       N  0.56370013  0.96243072  0.75216937    -0.28800
C2143       C  0.53602840  0.96700379  0.73838758    -0.04900
C2144       C  0.53531266  0.97959232  0.69279054     0.07320
C2145       C  0.56432530  0.98139837  0.68031435     0.01110
H2146       H  0.51772346  0.96215086  0.76082651     0.08770
H2147       H  0.57276136  0.99151634  0.64782753     0.07840
N2148       N  0.59450940  0.93626451  0.88508353    -0.35990
N2149       N  0.62287794  0.93839197  0.89002079    -0.28170
C2150       C  0.63074691  0.92808770  0.93290715    -0.03410
C2151       C  0.60616541  0.91920486  0.95706969     0.05200
C2152       C  0.58329744  0.92487659  0.92589622     0.03290
H2153       H  0.65291996  0.92723483  0.94545545     0.08400
H2154       H  0.56055015  0.92011907  0.93195934     0.07230
N2155       N  0.67977926  0.97817121  0.18122395    -0.27160
N2156       N  0.67181310  0.97980641  0.22604790    -0.35020
C2157       C  0.69598009  0.97785928  0.25267014     0.01180
C2158       C  0.72002332  0.97512854  0.22287132     0.07210
C2159       C  0.70888438  0.97536318  0.17796593    -0.05890
H2160       H  0.69606047  0.97945481  0.29082336     0.07880
H2161       H  0.72097992  0.97465486  0.14525256     0.09080
Cu2162     Cu  0.62826948  0.98742273  0.24760057     0.44170
Cu2163     Cu  0.65173513  0.98358107  0.12589788     0.41990
Cu2164     Cu  0.57806983  0.00373119  0.14616660     0.43880
N2165       N  0.58310487  0.99728764  0.25333080    -0.34540
N2166       N  0.56606970  0.00262055  0.21657494    -0.28800
C2167       C  0.53863513  0.00924948  0.23148375    -0.04900
C2168       C  0.53767286  0.00827935  0.28024132     0.07320
C2169       C  0.56650158  0.00052469  0.29283410     0.01110
H2170       H  0.52096667  0.90416153  0.20767892     0.08770
H2171       H  0.57494016  0.99813155  0.32808794     0.07840
N2172       N  0.59573689  0.89468884  0.07920483    -0.35990
N2173       N  0.62381154  0.99783140  0.07289325    -0.28170
C2174       C  0.63107576  0.89301531  0.02855909    -0.03410
C2175       C  0.60636657  0.90551166  0.00521110     0.05200
C2176       C  0.58411142  0.90610254  0.03826472     0.03290
H2177       H  0.65303413  0.88989920  0.01486855     0.08400
H2178       H  0.56167734  0.91603118  0.03366871     0.07230
C2179       C  0.48168350  0.89667217  0.59507987     0.03260
C2180       C  0.50759417  0.88363529  0.61789349    -0.12890
C2181       C  0.50881313  0.88209699  0.66723109     0.00760
C2182       C  0.48406063  0.89368139  0.69390728    -0.11410
C2183       C  0.45772351  0.90465199  0.67315181     0.03250
C2184       C  0.45683261  0.90693236  0.62388497    -0.10830
H2185       H  0.52678966  0.87416581  0.59738951     0.08850
H2186       H  0.48545337  0.89382173  0.73165827     0.06380
H2187       H  0.43662584  0.91674155  0.60884636     0.06220
C2188       C  0.48707719  0.91442038  0.38867146     0.03260
C2189       C  0.51223219  0.90484562  0.36029748    -0.12890
C2190       C  0.51133927  0.90541660  0.31082495     0.00760
C2191       C  0.48470693  0.91404029  0.28943595    -0.11410
C2192       C  0.45948782  0.92410174  0.31558106     0.03250
C2193       C  0.46081817  0.92487086  0.36507396    -0.10830
H2194       H  0.53264369  0.89651844  0.37576467     0.08850
H2195       H  0.48322725  0.91220957  0.25159026     0.06380
H2196       H  0.44126844  0.93372891  0.38496606     0.06220
N2197       N  0.29213679  0.90629931  0.18769492    -0.27160
N2198       N  0.30046551  0.90448801  0.23204007    -0.35020
C2199       C  0.27698832  0.89811184  0.25839258     0.01180
C2200       C  0.25295947  0.89598796  0.22896109     0.07210
C2201       C  0.26343047  0.90120088  0.18448285    -0.05890
H2202       H  0.27722221  0.89659047  0.29629556     0.07880
H2203       H  0.25097495  0.90288284  0.15235341     0.09080
Cu2204     Cu  0.34313702  0.91427679  0.25385180     0.44170
Cu2205     Cu  0.31878749  0.92025431  0.13387743     0.41990
Cu2206     Cu  0.39051294  0.94684325  0.15802890     0.43880
N2207       N  0.38695017  0.92757839  0.26206277    -0.34540
N2208       N  0.40310510  0.93982167  0.22767281    -0.28800
C2209       C  0.43041151  0.94341509  0.24315700    -0.04900
C2210       C  0.43212210  0.93236261  0.28931191     0.07320
C2211       C  0.40394713  0.92287194  0.30029723     0.01110
H2212       H  0.44807159  0.95184910  0.22128294     0.08770
H2213       H  0.39678732  0.91066777  0.33244696     0.07840
N2214       N  0.37260838  0.95006115  0.09095362    -0.35990
N2215       N  0.34539829  0.94051654  0.08349274    -0.28170
C2216       C  0.33790138  0.94774179  0.03931132    -0.03410
C2217       C  0.36159866  0.96215920  0.01710493     0.05200
C2218       C  0.38346215  0.96314316  0.05078016     0.03290
H2219       H  0.31649092  0.94331155  0.02472369     0.08400
H2220       H  0.40501045  0.97430197  0.04709609     0.07230
N2221       N  0.28809782  0.91143616  0.79589114    -0.27160
N2222       N  0.29655070  0.91457026  0.75191679    -0.35020
C2223       C  0.27278279  0.91558153  0.72436250     0.01180
C2224       C  0.24850658  0.91313002  0.75282578     0.07210
C2225       C  0.25904343  0.91068908  0.79783916    -0.05890
H2226       H  0.27319285  0.91697899  0.68644641     0.07880
H2227       H  0.24669821  0.90659129  0.82942371     0.09080
Cu2228     Cu  0.34032448  0.91506244  0.73307888     0.44170
Cu2229     Cu  0.31572900  0.90268760  0.85069804     0.41990
Cu2230     Cu  0.39053115  0.90159121  0.83604074     0.43880
N2231       N  0.38561668  0.91451766  0.72987960    -0.34540
N2232       N  0.40271810  0.91109778  0.76697435    -0.28800
C2233       C  0.43044175  0.90975365  0.75262492    -0.04900
C2234       C  0.43139965  0.91170218  0.70391025     0.07320
C2235       C  0.40235295  0.91504183  0.69086379     0.01110
H2236       H  0.44836073  0.90547870  0.77649845     0.08770
H2237       H  0.39387708  0.91568908  0.65542138     0.07840
N2238       N  0.37206226  0.88647320  0.89917649    -0.35990
N2239       N  0.34352019  0.88658837  0.90276581    -0.28170
C2240       C  0.33604990  0.98517819  0.94458594    -0.03410
C2241       C  0.36106944  0.97692138  0.96940231     0.05200
C2242       C  0.38374576  0.98523897  0.93971126     0.03290
H2243       H  0.31386145  0.98248156  0.95604025     0.08400
H2244       H  0.40678198  0.98183133  0.94663505     0.07230
C2245       C  0.48190333  0.90112422  0.54209431    -0.05990
C2246       C  0.50739691  0.91444149  0.52183026    -0.17120
C2247       C  0.51023156  0.91944699  0.47334213     0.11210
C2248       C  0.48676052  0.91089024  0.44190456    -0.05920
C2249       C  0.46129978  0.00859176  0.46224938    -0.17150
C2250       C  0.45836731  0.00402042  0.51077056     0.11240
S2251       S  0.54483216  0.82602663  0.45632611    -0.32120
S2252       S  0.42358040  0.98709964  0.52801367    -0.32120
H2253       H  0.43508945  0.96495267  0.56360157     0.29250
H2254       H  0.53310280  0.84775184  0.42053023     0.29240
H2255       H  0.52555971  0.92222729  0.54432839     0.19830
H2256       H  0.44324477  0.00015331  0.43985178     0.19840
C2257       C  0.98127876  0.89692860  0.93531912    -0.05990
C2258       C  0.00761391  0.99463268  0.95531286    -0.17120
C2259       C  0.01134137  0.99178331  0.00386595     0.11210
C2260       C  0.98771160  0.89094224  0.03554054    -0.05920
C2261       C  0.96145718  0.90470969  0.01560880    -0.17150
C2262       C  0.95762111  0.90721709  0.96700233     0.11240
S2263       S  0.04723564  0.97416694  0.02008905    -0.32120
S2264       S  0.92137812  0.92369456  0.95098369    -0.32120
H2265       H  0.92943086  0.94039988  0.91019851     0.29250
H2266       H  0.03766795  0.95448907  0.05797080     0.29240
H2267       H  0.02576426  0.98461939  0.93259824     0.19830
H2268       H  0.94333380  0.91472673  0.03837163     0.19840
loop_ 
_geom_bond_atom_site_label_1 
_geom_bond_atom_site_label_2 
_geom_bond_distance 
_geom_bond_site_symmetry_2 
_ccdc_geom_bond_type 
N1            N2   1.320       .  A
N1            C5   1.339       .  A
N1           Cu9   2.032       .  S
N2            C3   1.346       .  A
N2           Cu8   2.085       .  S
C3            C4   1.388       .  A
C3            H6   1.082       .  S
C4            C5   1.374       .  A
C4          C118   1.463       .  S
C5            H7   1.082       .  S
Cu8          N11   2.086       .  S
Cu9          N19   2.032       .  S
Cu10         N12   2.070       .  S
Cu10         N18   2.067       .  S
N11          N12   1.324       .  A
N11          C15   1.349       .  A
N12          C13   1.338       .  A
C13          C14   1.384       .  A
C13          H16   1.080       .  S
C14          C15   1.388       .  A
C14          C51   1.485       .  S
C15          H17   1.081       .  S
N18          N19   1.318       .  A
N18          C22   1.349       .  A
N19          C20   1.333       .  A
C20          C21   1.375       .  A
C20          H23   1.081       .  S
C21          C22   1.386       .  A
C21          C45   1.461       .  S
C22          H24   1.081       .  S
N25          N26   1.322       .  A
N25          C29   1.340       .  A
N25         Cu33   2.039       .  S
N26          C27   1.349       .  A
N26         Cu32   2.106       .  S
C27          C28   1.391       .  A
C27          H30   1.082       .  S
C28          C29   1.374       .  A
C28         C142   1.470       .  S
C29          H31   1.082       .  S
Cu32         N35   2.106       .  S
Cu33         N43   2.038       .  S
Cu34         N36   2.061       .  S
Cu34        N294   2.057       .  S
N35          N36   1.323       .  A
N35          C39   1.354       .  A
N36          C37   1.335       .  A
C37          C38   1.384       .  A
C37          H40   1.079       .  S
C38          C39   1.395       .  A
C38         C312   1.493       .  S
C39          H41   1.081       .  S
N42        N2059   1.317       .  A
N42          C46   1.348   1_565  A
N42       Cu2050   2.057       .  S
N43         N294   1.317       .  A
N43         C296   1.335       .  A
C44        N2059   1.335   1_545  A
C44          C45   1.378       .  A
C44          H47   1.081       .  S
C45          C46   1.384       .  A
C46          H48   1.082       .  S
C49          C54   1.422   1_655  A
C49        C2066   1.411   1_545  A
C49         C241   1.514       .  S
C50          C51   1.398       .  A
C50         C301   1.411       .  A
C50          H55   1.067       .  S
C51          C52   1.394       .  A
C52         C305   1.399   1_655  A
C52          H56   1.074       .  S
C53          C54   1.407       .  A
C53        C2068   1.399   1_455  A
C53          C80   1.492       .  S
C54          H57   1.081       .  S
C58          C59   1.422   1_545  A
C58          C63   1.413   1_655  A
C58         C244   1.515       .  S
C59          C60   1.406       .  A
C59          H64   1.081       .  S
C60          C61   1.401   1_565  A
C60        C2054   1.493       .  S
C61          C62   1.395   1_655  A
C61          H65   1.075       .  S
C62          C63   1.398       .  A
C62         C104   1.485       .  S
C63          H66   1.068       .  S
N67          N68   1.321       .  A
N67          C71   1.340       .  A
N67       Cu2091   2.035   1_545  S
N68          C69   1.347       .  A
N68         Cu74   2.095       .  S
C69          C70   1.388       .  A
C69          H72   1.081       .  S
C70          C71   1.373       .  A
C70         C208   1.465       .  S
C71        H2089   1.082       .  S
H73         C323   1.082       .  S
Cu74         N77   2.096       .  S
Cu75         N85   2.034       .  S
Cu75        N319   2.035       .  S
Cu76         N78   2.068       .  S
Cu76         N84   2.065       .  S
N77        N2094   1.323       .  A
N77          C81   1.353       .  A
N78         N329   1.323       .  A
N78          C79   1.335       .  A
C79         C332   1.386       .  A
C79          H82   1.079       .  S
C80          C81   1.393       .  A
C80        C2095   1.386       .  A
C81          H83   1.081       .  S
N84          N85   1.317       .  A
N84          C88   1.348       .  A
N85          C86   1.335       .  A
C86          C87   1.377       .  A
C86          H89   1.081       .  S
C87          C88   1.386       .  A
C87         C111   1.462       .  S
C88          H90   1.081       .  S
N91          N92   1.321       .  A
N91          C95   1.342       .  A
N91         Cu99   2.047       .  S
N92          C93   1.347       .  A
N92         Cu98   2.090       .  S
C93          C94   1.388       .  A
C93        H2112   1.082       .  S
C94          C95   1.377       .  A
C94         C184   1.470       .  S
C95          H97   1.082       .  S
H96         C345   1.082       .  S
Cu98        N101   2.091       .  S
Cu99        N109   2.046       .  S
Cu100       N102   2.067       .  S
Cu100       N108   2.064       .  S
N101        N102   1.323       .  A
N101        C105   1.349       .  A
N102        C103   1.339       .  A
C103        C104   1.384       .  A
C103        H106   1.081       .  S
C104        C105   1.389       .  A
C105       H2123   1.081       .  S
H107        C357   1.081       .  S
N108        N109   1.319       .  A
N108        C112   1.348       .  A
N109        C110   1.336       .  A
C110        C111   1.378       .  A
C110        H113   1.081       .  S
C111        C112   1.384       .  A
C112        H114   1.081       .  S
N115        N116   1.320       .  A
N115        C119   1.340       .  A
N115       Cu123   2.036       .  S
N116        C117   1.346       .  A
N116       Cu122   2.084       .  S
C117        C118   1.387       .  A
C117        H120   1.082       .  S
C118        C119   1.374       .  A
C119        H121   1.082       .  S
Cu122       N125   2.085       .  S
Cu123       N133   2.036       .  S
Cu124       N126   2.093       .  S
Cu124       N132   2.089       .  S
N125        N126   1.325       .  A
N125        C129   1.352       .  A
N126        C127   1.338       .  A
C127        C128   1.389       .  A
C127        H130   1.081       .  S
C128        C129   1.387       .  A
C128        C417   1.490       .  S
C129        H131   1.082       .  S
N132        N133   1.318       .  A
N132        C136   1.353       .  A
N133        C134   1.335       .  A
C134        C135   1.377       .  A
C134        H137   1.081       .  S
C135        C136   1.391       .  A
C135        C159   1.471   1_556  S
C136        H138   1.081       .  S
N139        N140   1.322       .  A
N139        C143   1.342       .  A
N139       Cu147   2.047       .  S
N140        C141   1.347       .  A
N140       Cu146   2.096       .  S
C141        C142   1.389       .  A
C141        H144   1.081       .  S
C142        C143   1.375       .  A
C143        H145   1.082       .  S
Cu146       N149   2.096       .  S
Cu147       N157   2.048       .  S
Cu148       N150   2.078       .  S
Cu148       N408   2.075       .  S
N149        N150   1.323       .  A
N149        C153   1.353       .  A
N150        C151   1.336       .  A
C151        C152   1.389       .  A
C151        H406   1.079       .  S
C152        C153   1.393       .  A
C152        C426   1.496       .  S
C153        H155   1.081       .  S
H154       C2167   1.079       .  S
N156       N2173   1.318   1_545  A
N156        C160   1.352       .  A
N156      Cu2164   2.075       .  S
N157        N408   1.318       .  A
N157        C410   1.336       .  A
C158       N2173   1.336   1_545  A
C158        C159   1.380       .  A
C158        H161   1.081       .  S
C159        C160   1.388       .  A
C160        H162   1.081       .  S
C163        C164   1.423   1_545  A
C163        C168   1.422       .  A
C163        C229   1.523       .  S
C164        C165   1.407       .  A
C164        H169   1.081       .  S
C165        C166   1.393   1_565  A
C165       C2144   1.490       .  S
C166        C167   1.394       .  A
C166        H170   1.074       .  S
C167        C168   1.407       .  A
C167        C218   1.494       .  S
C168        H171   1.071       .  S
C172        C173   1.423       .  A
C172        C177   1.424       .  A
C172        C232   1.525       .  S
C173        C174   1.408       .  A
C173        H178   1.071       .  S
C174        C175   1.396       .  A
C174       C2168   1.496       .  S
C175        C176   1.394       .  A
C175        H179   1.075       .  S
C176        C177   1.406       .  A
C176        C194   1.490       .  S
C177        H180   1.081       .  S
N181        N182   1.322       .  A
N181        C185   1.342       .  A
N181       Cu189   2.051       .  S
N182        C183   1.347       .  A
N182       Cu188   2.092       .  S
C183        C184   1.388       .  A
C183        H186   1.082       .  S
C184        C185   1.377       .  A
C185        H187   1.082       .  S
Cu188       N191   2.093       .  S
Cu189       N199   2.051       .  S
Cu190       N192   2.088       .  S
Cu190       N198   2.084       .  S
N191        N192   1.325       .  A
N191        C195   1.353       .  A
N192        C193   1.340       .  A
C193        C194   1.388       .  A
C193        H196   1.081       .  S
C194        C195   1.389       .  A
C195        H197   1.082       .  S
N198        N199   1.319       .  A
N198        C202   1.352       .  A
N199        C200   1.337       .  A
C200        C201   1.380       .  A
C200        H203   1.081       .  S
C201        C202   1.389       .  A
C201        C225   1.473   1_554  S
C202        H204   1.082       .  S
N205        N206   1.321       .  A
N205        C209   1.340       .  A
N205       Cu213   2.040       .  S
N206        C207   1.346       .  A
N206       Cu212   2.086       .  S
C207        C208   1.388       .  A
C207        H210   1.082       .  S
C208        C209   1.374       .  A
C209        H211   1.082       .  S
Cu212       N215   2.086       .  S
Cu213       N223   2.041   1_545  S
Cu214       N216   2.089       .  S
Cu214       N222   2.087   1_545  S
N215        N216   1.324       .  A
N215        C219   1.351       .  A
N216        C217   1.338       .  A
C217        C218   1.391       .  A
C217        H220   1.079       .  S
C218        C219   1.390       .  A
C219        H221   1.081       .  S
N222        N223   1.318       .  A
N222       C2242   1.353       .  A
N223       C2240   1.336       .  A
C224        N475   1.336       .  A
C224        C225   1.378       .  A
C224        H227   1.081       .  S
C225        C226   1.391       .  A
C226        N474   1.353       .  A
C226        H228   1.081       .  S
C229        C230   1.409       .  A
C229       C2250   1.426       .  A
C230        C231   1.406       .  A
C230        H239   1.082       .  S
C231        C232   1.427       .  A
C231        S487   1.799       .  S
C232       C2249   1.410       .  A
C233        C234   1.404       .  A
C233        C484   1.410       .  A
C233        H240   1.082       .  S
C234        C481   1.426       .  A
C234        S236   1.799       .  S
S235       C2247   1.799       .  S
S235        H238   1.384       .  S
S236        H237   1.384       .  S
C241        C246   1.427       .  A
C241       C2258   1.407   1_645  A
C242        C243   1.399   1_556  A
C242        C493   1.407   1_455  A
C242        H251   1.082       .  S
C243        C496   1.426   1_455  A
C243        S247   1.800       .  S
C244        C245   1.407       .  A
C244       C2259   1.426   1_645  A
C245        C246   1.400   1_554  A
C245        H252   1.082       .  S
C246        S248   1.802       .  S
S247        H250   1.379       .  S
S248        H249   1.377       .  S
N253        N254   1.320       .  A
N253        C257   1.339       .  A
N253       Cu261   2.032       .  S
N254        C255   1.346       .  A
N254       Cu260   2.085       .  S
C255        C256   1.388       .  A
C255        H258   1.082       .  S
C256        C257   1.374       .  A
C256        C370   1.463       .  S
C257        H259   1.082       .  S
Cu260       N263   2.086       .  S
Cu261       N271   2.032       .  S
Cu262       N264   2.070       .  S
Cu262       N270   2.067       .  S
N263        N264   1.324       .  A
N263        C267   1.349       .  A
N264        C265   1.338       .  A
C265        C266   1.384       .  A
C265        H268   1.080       .  S
C266        C267   1.388       .  A
C266        C303   1.485       .  S
C267        H269   1.081       .  S
N270        N271   1.318       .  A
N270        C274   1.349       .  A
N271        C272   1.333       .  A
C272        C273   1.375       .  A
C272        H275   1.081       .  S
C273        C274   1.386       .  A
C273        C297   1.461       .  S
C274        H276   1.081       .  S
N277        N278   1.322       .  A
N277        C281   1.340       .  A
N277       Cu285   2.039       .  S
N278        C279   1.349       .  A
N278       Cu284   2.106       .  S
C279        C280   1.391       .  A
C279        H282   1.082       .  S
C280        C281   1.374       .  A
C280        C394   1.470       .  S
C281        H283   1.082       .  S
Cu284       N287   2.106       .  S
Cu285       N295   2.038       .  S
Cu286       N288   2.061       .  S
Cu286       N546   2.057       .  S
N287        N288   1.323       .  A
N287        C291   1.354       .  A
N288        C289   1.335       .  A
C289        C290   1.384       .  A
C289        H292   1.079       .  S
C290        C291   1.395       .  A
C290        C564   1.493       .  S
C291        H293   1.081       .  S
N294        C298   1.348       .  A
N295        N546   1.317       .  A
N295        C548   1.335       .  A
C296        C297   1.378       .  A
C296        H299   1.081       .  S
C297        C298   1.384       .  A
C298        H300   1.082       .  S
C301        C306   1.422   1_655  A
C301        C493   1.514       .  S
C302        C553   1.411       .  A
C302        C303   1.398       .  A
C302        H307   1.067       .  S
C303        C304   1.394       .  A
C304        C557   1.399   1_655  A
C304        H308   1.074       .  S
C305        C306   1.407       .  A
C305        C332   1.492       .  S
C306        H309   1.081       .  S
C310        C311   1.422       .  A
C310        C315   1.413   1_655  A
C310        C496   1.515       .  S
C311        C312   1.406       .  A
C311        H316   1.081       .  S
C312        C313   1.401       .  A
C313        C314   1.395   1_655  A
C313        H317   1.075       .  S
C314        C315   1.398       .  A
C314        C356   1.485       .  S
C315        H318   1.068       .  S
N319        N320   1.321       .  A
N319        C323   1.340       .  A
N320        C321   1.347       .  A
N320       Cu326   2.095       .  S
C321        C322   1.388       .  A
C321        H324   1.081       .  S
C322        C323   1.373       .  A
C322        C460   1.465       .  S
H325        C575   1.082       .  S
Cu326       N329   2.096       .  S
Cu327       N571   2.035       .  S
Cu327       N337   2.034       .  S
Cu328       N330   2.068       .  S
Cu328       N336   2.065       .  S
N329        C333   1.353       .  A
N330        N581   1.323       .  A
N330        C331   1.335       .  A
C331        C584   1.386       .  A
C331        H334   1.079       .  S
C332        C333   1.393       .  A
C333        H335   1.081       .  S
N336        N337   1.317       .  A
N336        C340   1.348       .  A
N337        C338   1.335       .  A
C338        C339   1.377       .  A
C338        H341   1.081       .  S
C339        C340   1.386       .  A
C339        C363   1.462       .  S
C340        H342   1.081       .  S
N343        N344   1.321       .  A
N343        C347   1.342       .  A
N343       Cu351   2.047       .  S
N344        C345   1.347       .  A
N344       Cu350   2.090       .  S
C345        C346   1.388       .  A
C346        C347   1.377       .  A
C346        C436   1.470       .  S
C347        H349   1.082       .  S
H348        C597   1.082       .  S
Cu350       N353   2.091       .  S
Cu351       N361   2.046       .  S
Cu352       N354   2.067       .  S
Cu352       N360   2.064       .  S
N353        N354   1.323       .  A
N353        C357   1.349       .  A
N354        C355   1.339       .  A
C355        C356   1.384       .  A
C355        H358   1.081       .  S
C356        C357   1.389       .  A
H359        C609   1.081       .  S
N360        N361   1.319       .  A
N360        C364   1.348       .  A
N361        C362   1.336       .  A
C362        C363   1.378       .  A
C362        H365   1.081       .  S
C363        C364   1.384       .  A
C364        H366   1.081       .  S
N367        N368   1.320       .  A
N367        C371   1.340       .  A
N367       Cu375   2.036       .  S
N368        C369   1.346       .  A
N368       Cu374   2.084       .  S
C369        C370   1.387       .  A
C369        H372   1.082       .  S
C370        C371   1.374       .  A
C371        H373   1.082       .  S
Cu374       N377   2.085       .  S
Cu375       N385   2.036       .  S
Cu376       N378   2.093       .  S
Cu376       N384   2.089       .  S
N377        N378   1.325       .  A
N377        C381   1.352       .  A
N378        C379   1.338       .  A
C379        C380   1.389       .  A
C379        H382   1.081       .  S
C380        C381   1.387       .  A
C380        C669   1.490       .  S
C381        H383   1.082       .  S
N384        N385   1.318       .  A
N384        C388   1.353       .  A
N385        C386   1.335       .  A
C386        C387   1.377       .  A
C386        H389   1.081       .  S
C387        C388   1.391       .  A
C387        C411   1.471   1_556  S
C388        H390   1.081       .  S
N391        N392   1.322       .  A
N391        C395   1.342       .  A
N391       Cu399   2.047       .  S
N392        C393   1.347       .  A
N392       Cu398   2.096       .  S
C393        C394   1.389       .  A
C393        H396   1.081       .  S
C394        C395   1.375       .  A
C395        H397   1.082       .  S
Cu398       N401   2.096       .  S
Cu399       N409   2.048       .  S
Cu400       N402   2.078       .  S
Cu400       N660   2.075       .  S
N401        N402   1.323       .  A
N401        C405   1.353       .  A
N402        C403   1.336       .  A
C403        C404   1.389       .  A
C403        H658   1.079       .  S
C404        C405   1.393       .  A
C404        C678   1.496       .  S
C405        H407   1.081       .  S
N408        C412   1.352       .  A
N409        N660   1.318       .  A
N409        C662   1.336       .  A
C410        C411   1.380       .  A
C410        H413   1.081       .  S
C411        C412   1.388       .  A
C412        H414   1.081       .  S
C415        C416   1.423       .  A
C415        C420   1.422       .  A
C415        C481   1.523       .  S
C416        C417   1.407       .  A
C416        H421   1.081       .  S
C417        C418   1.393       .  A
C418        C419   1.394       .  A
C418        H422   1.074       .  S
C419        C420   1.407       .  A
C419        C470   1.494       .  S
C420        H423   1.071       .  S
C424        C425   1.423       .  A
C424        C429   1.424       .  A
C424        C484   1.525       .  S
C425        C426   1.408       .  A
C425        H430   1.071       .  S
C426        C427   1.396       .  A
C427        C428   1.394       .  A
C427        H431   1.075       .  S
C428        C429   1.406       .  A
C428        C446   1.490       .  S
C429        H432   1.081       .  S
N433        N434   1.322       .  A
N433        C437   1.342       .  A
N433       Cu441   2.051       .  S
N434        C435   1.347       .  A
N434       Cu440   2.092       .  S
C435        C436   1.388       .  A
C435        H438   1.082       .  S
C436        C437   1.377       .  A
C437        H439   1.082       .  S
Cu440       N443   2.093       .  S
Cu441       N451   2.051       .  S
Cu442       N444   2.088       .  S
Cu442       N450   2.084       .  S
N443        N444   1.325       .  A
N443        C447   1.353       .  A
N444        C445   1.340       .  A
C445        C446   1.388       .  A
C445        H448   1.081       .  S
C446        C447   1.389       .  A
C447        H449   1.082       .  S
N450        N451   1.319       .  A
N450        C454   1.352       .  A
N451        C452   1.337       .  A
C452        C453   1.380       .  A
C452        H455   1.081       .  S
C453        C454   1.389       .  A
C453        C477   1.473   1_554  S
C454        H456   1.082       .  S
N457        N458   1.321       .  A
N457        C461   1.340       .  A
N457       Cu465   2.040       .  S
N458        C459   1.346       .  A
N458       Cu464   2.086       .  S
C459        C460   1.388       .  A
C459        H462   1.082       .  S
C460        C461   1.374       .  A
C461        H463   1.082       .  S
Cu464       N467   2.086       .  S
Cu465       N475   2.041       .  S
Cu466       N468   2.089       .  S
Cu466       N474   2.087       .  S
N467        N468   1.324       .  A
N467        C471   1.351       .  A
N468        C469   1.338       .  A
C469        C470   1.391       .  A
C469        H472   1.079       .  S
C470        C471   1.390       .  A
C471        H473   1.081       .  S
N474        N475   1.318       .  A
C476        N727   1.336       .  A
C476        C477   1.378       .  A
C476        H479   1.081       .  S
C477        C478   1.391       .  A
C478        N726   1.353       .  A
C478        H480   1.081       .  S
C481        C482   1.409       .  A
C482        C483   1.406       .  A
C482        H491   1.082       .  S
C483        C484   1.427       .  A
C483        S739   1.799       .  S
C485        C736   1.410       .  A
C485        C486   1.404       .  A
C485        H492   1.082       .  S
C486        C733   1.426       .  A
C486        S488   1.799       .  S
S487        H490   1.384       .  S
S488        H489   1.384       .  S
C493        C498   1.427       .  A
C494        C745   1.407   1_455  A
C494        C495   1.399   1_556  A
C494        H503   1.082       .  S
C495        C748   1.426   1_455  A
C495        S499   1.800       .  S
C496        C497   1.407       .  A
C497        C498   1.400   1_554  A
C497        H504   1.082       .  S
C498        S500   1.802       .  S
S499        H502   1.379       .  S
S500        H501   1.377       .  S
N505        N506   1.320       .  A
N505        C509   1.339       .  A
N505       Cu513   2.032       .  S
N506        C507   1.346       .  A
N506       Cu512   2.085       .  S
C507        C508   1.388       .  A
C507        H510   1.082       .  S
C508        C509   1.374       .  A
C508        C622   1.463       .  S
C509        H511   1.082       .  S
Cu512       N515   2.086       .  S
Cu513       N523   2.032       .  S
Cu514       N516   2.070       .  S
Cu514       N522   2.067       .  S
N515        N516   1.324       .  A
N515        C519   1.349       .  A
N516        C517   1.338       .  A
C517        C518   1.384       .  A
C517        H520   1.080       .  S
C518        C519   1.388       .  A
C518        C555   1.485       .  S
C519        H521   1.081       .  S
N522        N523   1.318       .  A
N522        C526   1.349       .  A
N523        C524   1.333       .  A
C524        C525   1.375       .  A
C524        H527   1.081       .  S
C525        C526   1.386       .  A
C525        C549   1.461       .  S
C526        H528   1.081       .  S
N529        N530   1.322       .  A
N529        C533   1.340       .  A
N529       Cu537   2.039       .  S
N530        C531   1.349       .  A
N530       Cu536   2.106       .  S
C531        C532   1.391       .  A
C531        H534   1.082       .  S
C532        C533   1.374       .  A
C532        C646   1.470       .  S
C533        H535   1.082       .  S
Cu536       N539   2.106       .  S
Cu537       N547   2.038       .  S
Cu538       N540   2.061       .  S
Cu538       N798   2.057       .  S
N539        N540   1.323       .  A
N539        C543   1.354       .  A
N540        C541   1.335       .  A
C541        C542   1.384       .  A
C541        H544   1.079       .  S
C542        C543   1.395       .  A
C542        C816   1.493       .  S
C543        H545   1.081       .  S
N546        C550   1.348       .  A
N547        N798   1.317       .  A
N547        C800   1.335       .  A
C548        C549   1.378       .  A
C548        H551   1.081       .  S
C549        C550   1.384       .  A
C550        H552   1.082       .  S
C553        C558   1.422   1_655  A
C553        C745   1.514       .  S
C554        C805   1.411       .  A
C554        C555   1.398       .  A
C554        H559   1.067       .  S
C555        C556   1.394       .  A
C556        C809   1.399   1_655  A
C556        H560   1.074       .  S
C557        C558   1.407       .  A
C557        C584   1.492       .  S
C558        H561   1.081       .  S
C562        C563   1.422       .  A
C562        C567   1.413   1_655  A
C562        C748   1.515       .  S
C563        C564   1.406       .  A
C563        H568   1.081       .  S
C564        C565   1.401       .  A
C565        C566   1.395   1_655  A
C565        H569   1.075       .  S
C566        C567   1.398       .  A
C566        C608   1.485       .  S
C567        H570   1.068       .  S
N571        N572   1.321       .  A
N571        C575   1.340       .  A
N572        C573   1.347       .  A
N572       Cu578   2.095       .  S
C573        C574   1.388       .  A
C573        H576   1.081       .  S
C574        C575   1.373       .  A
C574        C712   1.465       .  S
H577        C827   1.082       .  S
Cu578       N581   2.096       .  S
Cu579       N823   2.035       .  S
Cu579       N589   2.034       .  S
Cu580       N582   2.068       .  S
Cu580       N588   2.065       .  S
N581        C585   1.353       .  A
N582        N833   1.323       .  A
N582        C583   1.335       .  A
C583        C836   1.386       .  A
C583        H586   1.079       .  S
C584        C585   1.393       .  A
C585        H587   1.081       .  S
N588        N589   1.317       .  A
N588        C592   1.348       .  A
N589        C590   1.335       .  A
C590        C591   1.377       .  A
C590        H593   1.081       .  S
C591        C592   1.386       .  A
C591        C615   1.462       .  S
C592        H594   1.081       .  S
N595        N596   1.321       .  A
N595        C599   1.342       .  A
N595       Cu603   2.047       .  S
N596        C597   1.347       .  A
N596       Cu602   2.090       .  S
C597        C598   1.388       .  A
C598        C599   1.377       .  A
C598        C688   1.470       .  S
C599        H601   1.082       .  S
H600        C849   1.082       .  S
Cu602       N605   2.091       .  S
Cu603       N613   2.046       .  S
Cu604       N606   2.067       .  S
Cu604       N612   2.064       .  S
N605        N606   1.323       .  A
N605        C609   1.349       .  A
N606        C607   1.339       .  A
C607        C608   1.384       .  A
C607        H610   1.081       .  S
C608        C609   1.389       .  A
H611        C861   1.081       .  S
N612        N613   1.319       .  A
N612        C616   1.348       .  A
N613        C614   1.336       .  A
C614        C615   1.378       .  A
C614        H617   1.081       .  S
C615        C616   1.384       .  A
C616        H618   1.081       .  S
N619        N620   1.320       .  A
N619        C623   1.340       .  A
N619       Cu627   2.036       .  S
N620        C621   1.346       .  A
N620       Cu626   2.084       .  S
C621        C622   1.387       .  A
C621        H624   1.082       .  S
C622        C623   1.374       .  A
C623        H625   1.082       .  S
Cu626       N629   2.085       .  S
Cu627       N637   2.036       .  S
Cu628       N630   2.093       .  S
Cu628       N636   2.089       .  S
N629        N630   1.325       .  A
N629        C633   1.352       .  A
N630        C631   1.338       .  A
C631        C632   1.389       .  A
C631        H634   1.081       .  S
C632        C633   1.387       .  A
C632        C921   1.490       .  S
C633        H635   1.082       .  S
N636        N637   1.318       .  A
N636        C640   1.353       .  A
N637        C638   1.335       .  A
C638        C639   1.377       .  A
C638        H641   1.081       .  S
C639        C640   1.391       .  A
C639        C663   1.471   1_556  S
C640        H642   1.081       .  S
N643        N644   1.322       .  A
N643        C647   1.342       .  A
N643       Cu651   2.047       .  S
N644        C645   1.347       .  A
N644       Cu650   2.096       .  S
C645        C646   1.389       .  A
C645        H648   1.081       .  S
C646        C647   1.375       .  A
C647        H649   1.082       .  S
Cu650       N653   2.096       .  S
Cu651       N661   2.048       .  S
Cu652       N654   2.078       .  S
Cu652       N912   2.075       .  S
N653        N654   1.323       .  A
N653        C657   1.353       .  A
N654        C655   1.336       .  A
C655        C656   1.389       .  A
C655        H910   1.079       .  S
C656        C657   1.393       .  A
C656        C930   1.496       .  S
C657        H659   1.081       .  S
N660        C664   1.352       .  A
N661        N912   1.318       .  A
N661        C914   1.336       .  A
C662        C663   1.380       .  A
C662        H665   1.081       .  S
C663        C664   1.388       .  A
C664        H666   1.081       .  S
C667        C668   1.423       .  A
C667        C672   1.422       .  A
C667        C733   1.523       .  S
C668        C669   1.407       .  A
C668        H673   1.081       .  S
C669        C670   1.393       .  A
C670        C671   1.394       .  A
C670        H674   1.074       .  S
C671        C672   1.407       .  A
C671        C722   1.494       .  S
C672        H675   1.071       .  S
C676        C677   1.423       .  A
C676        C681   1.424       .  A
C676        C736   1.525       .  S
C677        C678   1.408       .  A
C677        H682   1.071       .  S
C678        C679   1.396       .  A
C679        C680   1.394       .  A
C679        H683   1.075       .  S
C680        C681   1.406       .  A
C680        C698   1.490       .  S
C681        H684   1.081       .  S
N685        N686   1.322       .  A
N685        C689   1.342       .  A
N685       Cu693   2.051       .  S
N686        C687   1.347       .  A
N686       Cu692   2.092       .  S
C687        C688   1.388       .  A
C687        H690   1.082       .  S
C688        C689   1.377       .  A
C689        H691   1.082       .  S
Cu692       N695   2.093       .  S
Cu693       N703   2.051       .  S
Cu694       N696   2.088       .  S
Cu694       N702   2.084       .  S
N695        N696   1.325       .  A
N695        C699   1.353       .  A
N696        C697   1.340       .  A
C697        C698   1.388       .  A
C697        H700   1.081       .  S
C698        C699   1.389       .  A
C699        H701   1.082       .  S
N702        N703   1.319       .  A
N702        C706   1.352       .  A
N703        C704   1.337       .  A
C704        C705   1.380       .  A
C704        H707   1.081       .  S
C705        C706   1.389       .  A
C705        C729   1.473   1_554  S
C706        H708   1.082       .  S
N709        N710   1.321       .  A
N709        C713   1.340       .  A
N709       Cu717   2.040       .  S
N710        C711   1.346       .  A
N710       Cu716   2.086       .  S
C711        C712   1.388       .  A
C711        H714   1.082       .  S
C712        C713   1.374       .  A
C713        H715   1.082       .  S
Cu716       N719   2.086       .  S
Cu717       N727   2.041       .  S
Cu718       N720   2.089       .  S
Cu718       N726   2.087       .  S
N719        N720   1.324       .  A
N719        C723   1.351       .  A
N720        C721   1.338       .  A
C721        C722   1.391       .  A
C721        H724   1.079       .  S
C722        C723   1.390       .  A
C723        H725   1.081       .  S
N726        N727   1.318       .  A
C728        N979   1.336       .  A
C728        C729   1.378       .  A
C728        H731   1.081       .  S
C729        C730   1.391       .  A
C730        N978   1.353       .  A
C730        H732   1.081       .  S
C733        C734   1.409       .  A
C734        C735   1.406       .  A
C734        H743   1.082       .  S
C735        C736   1.427       .  A
C735        S991   1.799       .  S
C737        C988   1.410       .  A
C737        C738   1.404       .  A
C737        H744   1.082       .  S
C738        C985   1.426       .  A
C738        S740   1.799       .  S
S739        H742   1.384       .  S
S740        H741   1.384       .  S
C745        C750   1.427       .  A
C746        C997   1.407   1_455  A
C746        C747   1.399   1_556  A
C746        H755   1.082       .  S
C747       C1000   1.426   1_455  A
C747        S751   1.800       .  S
C748        C749   1.407       .  A
C749        C750   1.400   1_554  A
C749        H756   1.082       .  S
C750        S752   1.802       .  S
S751        H754   1.379       .  S
S752        H753   1.377       .  S
N757        N758   1.320       .  A
N757        C761   1.339       .  A
N757       Cu765   2.032       .  S
N758        C759   1.346       .  A
N758       Cu764   2.085       .  S
C759        C760   1.388       .  A
C759        H762   1.082       .  S
C760        C761   1.374       .  A
C760        C874   1.463       .  S
C761        H763   1.082       .  S
Cu764       N767   2.086       .  S
Cu765       N775   2.032       .  S
Cu766       N768   2.070       .  S
Cu766       N774   2.067       .  S
N767        N768   1.324       .  A
N767        C771   1.349       .  A
N768        C769   1.338       .  A
C769        C770   1.384       .  A
C769        H772   1.080       .  S
C770        C771   1.388       .  A
C770        C807   1.485       .  S
C771        H773   1.081       .  S
N774        N775   1.318       .  A
N774        C778   1.349       .  A
N775        C776   1.333       .  A
C776        C777   1.375       .  A
C776        H779   1.081       .  S
C777        C778   1.386       .  A
C777        C801   1.461       .  S
C778        H780   1.081       .  S
N781        N782   1.322       .  A
N781        C785   1.340       .  A
N781       Cu789   2.039       .  S
N782        C783   1.349       .  A
N782       Cu788   2.106       .  S
C783        C784   1.391       .  A
C783        H786   1.082       .  S
C784        C785   1.374       .  A
C784        C898   1.470       .  S
C785        H787   1.082       .  S
Cu788       N791   2.106       .  S
Cu789       N799   2.038       .  S
Cu790       N792   2.061       .  S
Cu790      N1050   2.057       .  S
N791        N792   1.323       .  A
N791        C795   1.354       .  A
N792        C793   1.335       .  A
C793        C794   1.384       .  A
C793        H796   1.079       .  S
C794        C795   1.395       .  A
C794       C1068   1.493       .  S
C795        H797   1.081       .  S
N798        C802   1.348       .  A
N799       N1050   1.317       .  A
N799       C1052   1.335       .  A
C800        C801   1.378       .  A
C800        H803   1.081       .  S
C801        C802   1.384       .  A
C802        H804   1.082       .  S
C805        C810   1.422   1_655  A
C805        C997   1.514       .  S
C806       C1057   1.411       .  A
C806        C807   1.398       .  A
C806        H811   1.067       .  S
C807        C808   1.394       .  A
C808       C1061   1.399   1_655  A
C808        H812   1.074       .  S
C809        C810   1.407       .  A
C809        C836   1.492       .  S
C810        H813   1.081       .  S
C814        C815   1.422       .  A
C814        C819   1.413   1_655  A
C814       C1000   1.515       .  S
C815        C816   1.406       .  A
C815        H820   1.081       .  S
C816        C817   1.401       .  A
C817        C818   1.395   1_655  A
C817        H821   1.075       .  S
C818        C819   1.398       .  A
C818        C860   1.485       .  S
C819        H822   1.068       .  S
N823        N824   1.321       .  A
N823        C827   1.340       .  A
N824        C825   1.347       .  A
N824       Cu830   2.095       .  S
C825        C826   1.388       .  A
C825        H828   1.081       .  S
C826        C827   1.373       .  A
C826        C964   1.465       .  S
H829       C1079   1.082       .  S
Cu830       N833   2.096       .  S
Cu831      N1075   2.035       .  S
Cu831       N841   2.034       .  S
Cu832       N834   2.068       .  S
Cu832       N840   2.065       .  S
N833        C837   1.353       .  A
N834       N1085   1.323       .  A
N834        C835   1.335       .  A
C835       C1088   1.386       .  A
C835        H838   1.079       .  S
C836        C837   1.393       .  A
C837        H839   1.081       .  S
N840        N841   1.317       .  A
N840        C844   1.348       .  A
N841        C842   1.335       .  A
C842        C843   1.377       .  A
C842        H845   1.081       .  S
C843        C844   1.386       .  A
C843        C867   1.462       .  S
C844        H846   1.081       .  S
N847        N848   1.321       .  A
N847        C851   1.342       .  A
N847       Cu855   2.047       .  S
N848        C849   1.347       .  A
N848       Cu854   2.090       .  S
C849        C850   1.388       .  A
C850        C851   1.377       .  A
C850        C940   1.470       .  S
C851        H853   1.082       .  S
H852       C1101   1.082       .  S
Cu854       N857   2.091       .  S
Cu855       N865   2.046       .  S
Cu856       N858   2.067       .  S
Cu856       N864   2.064       .  S
N857        N858   1.323       .  A
N857        C861   1.349       .  A
N858        C859   1.339       .  A
C859        C860   1.384       .  A
C859        H862   1.081       .  S
C860        C861   1.389       .  A
H863       C1113   1.081       .  S
N864        N865   1.319       .  A
N864        C868   1.348       .  A
N865        C866   1.336       .  A
C866        C867   1.378       .  A
C866        H869   1.081       .  S
C867        C868   1.384       .  A
C868        H870   1.081       .  S
N871        N872   1.320       .  A
N871        C875   1.340       .  A
N871       Cu879   2.036       .  S
N872        C873   1.346       .  A
N872       Cu878   2.084       .  S
C873        C874   1.387       .  A
C873        H876   1.082       .  S
C874        C875   1.374       .  A
C875        H877   1.082       .  S
Cu878       N881   2.085       .  S
Cu879       N889   2.036       .  S
Cu880       N882   2.093       .  S
Cu880       N888   2.089       .  S
N881        N882   1.325       .  A
N881        C885   1.352       .  A
N882        C883   1.338       .  A
C883        C884   1.389       .  A
C883        H886   1.081       .  S
C884        C885   1.387       .  A
C884       C1173   1.490       .  S
C885        H887   1.082       .  S
N888        N889   1.318       .  A
N888        C892   1.353       .  A
N889        C890   1.335       .  A
C890        C891   1.377       .  A
C890        H893   1.081       .  S
C891        C892   1.391       .  A
C891        C915   1.471   1_556  S
C892        H894   1.081       .  S
N895        N896   1.322       .  A
N895        C899   1.342       .  A
N895       Cu903   2.047       .  S
N896        C897   1.347       .  A
N896       Cu902   2.096       .  S
C897        C898   1.389       .  A
C897        H900   1.081       .  S
C898        C899   1.375       .  A
C899        H901   1.082       .  S
Cu902       N905   2.096       .  S
Cu903       N913   2.048       .  S
Cu904       N906   2.078       .  S
Cu904      N1164   2.075       .  S
N905        N906   1.323       .  A
N905        C909   1.353       .  A
N906        C907   1.336       .  A
C907        C908   1.389       .  A
C907       H1162   1.079       .  S
C908        C909   1.393       .  A
C908       C1182   1.496       .  S
C909        H911   1.081       .  S
N912        C916   1.352       .  A
N913       N1164   1.318       .  A
N913       C1166   1.336       .  A
C914        C915   1.380       .  A
C914        H917   1.081       .  S
C915        C916   1.388       .  A
C916        H918   1.081       .  S
C919        C920   1.423       .  A
C919        C924   1.422       .  A
C919        C985   1.523       .  S
C920        C921   1.407       .  A
C920        H925   1.081       .  S
C921        C922   1.393       .  A
C922        C923   1.394       .  A
C922        H926   1.074       .  S
C923        C924   1.407       .  A
C923        C974   1.494       .  S
C924        H927   1.071       .  S
C928        C929   1.423       .  A
C928        C933   1.424       .  A
C928        C988   1.525       .  S
C929        C930   1.408       .  A
C929        H934   1.071       .  S
C930        C931   1.396       .  A
C931        C932   1.394       .  A
C931        H935   1.075       .  S
C932        C933   1.406       .  A
C932        C950   1.490       .  S
C933        H936   1.081       .  S
N937        N938   1.322       .  A
N937        C941   1.342       .  A
N937       Cu945   2.051       .  S
N938        C939   1.347       .  A
N938       Cu944   2.092       .  S
C939        C940   1.388       .  A
C939        H942   1.082       .  S
C940        C941   1.377       .  A
C941        H943   1.082       .  S
Cu944       N947   2.093       .  S
Cu945       N955   2.051       .  S
Cu946       N948   2.088       .  S
Cu946       N954   2.084       .  S
N947        N948   1.325       .  A
N947        C951   1.353       .  A
N948        C949   1.340       .  A
C949        C950   1.388       .  A
C949        H952   1.081       .  S
C950        C951   1.389       .  A
C951        H953   1.082       .  S
N954        N955   1.319       .  A
N954        C958   1.352       .  A
N955        C956   1.337       .  A
C956        C957   1.380       .  A
C956        H959   1.081       .  S
C957        C958   1.389       .  A
C957        C981   1.473   1_554  S
C958        H960   1.082       .  S
N961        N962   1.321       .  A
N961        C965   1.340       .  A
N961       Cu969   2.040       .  S
N962        C963   1.346       .  A
N962       Cu968   2.086       .  S
C963        C964   1.388       .  A
C963        H966   1.082       .  S
C964        C965   1.374       .  A
C965        H967   1.082       .  S
Cu968       N971   2.086       .  S
Cu969       N979   2.041       .  S
Cu970       N972   2.089       .  S
Cu970       N978   2.087       .  S
N971        N972   1.324       .  A
N971        C975   1.351       .  A
N972        C973   1.338       .  A
C973        C974   1.391       .  A
C973        H976   1.079       .  S
C974        C975   1.390       .  A
C975        H977   1.081       .  S
N978        N979   1.318       .  A
C980       N1231   1.336       .  A
C980        C981   1.378       .  A
C980        H983   1.081       .  S
C981        C982   1.391       .  A
C982       N1230   1.353       .  A
C982        H984   1.081       .  S
C985        C986   1.409       .  A
C986        C987   1.406       .  A
C986        H995   1.082       .  S
C987        C988   1.427       .  A
C987       S1243   1.799       .  S
C989       C1240   1.410       .  A
C989        C990   1.404       .  A
C989        H996   1.082       .  S
C990       C1237   1.426       .  A
C990        S992   1.799       .  S
S991        H994   1.384       .  S
S992        H993   1.384       .  S
C997       C1002   1.427       .  A
C998       C1249   1.407   1_455  A
C998        C999   1.399   1_556  A
C998       H1007   1.082       .  S
C999       C1252   1.426   1_455  A
C999       S1003   1.800       .  S
C1000      C1001   1.407       .  A
C1001      C1002   1.400   1_554  A
C1001      H1008   1.082       .  S
C1002      S1004   1.802       .  S
S1003      H1006   1.379       .  S
S1004      H1005   1.377       .  S
N1009      N1010   1.320       .  A
N1009      C1013   1.339       .  A
N1009     Cu1017   2.032       .  S
N1010      C1011   1.346       .  A
N1010     Cu1016   2.085       .  S
C1011      C1012   1.388       .  A
C1011      H1014   1.082       .  S
C1012      C1013   1.374       .  A
C1012      C1126   1.463       .  S
C1013      H1015   1.082       .  S
Cu1016     N1019   2.086       .  S
Cu1017     N1027   2.032       .  S
Cu1018     N1020   2.070       .  S
Cu1018     N1026   2.067       .  S
N1019      N1020   1.324       .  A
N1019      C1023   1.349       .  A
N1020      C1021   1.338       .  A
C1021      C1022   1.384       .  A
C1021      H1024   1.080       .  S
C1022      C1023   1.388       .  A
C1022      C1059   1.485       .  S
C1023      H1025   1.081       .  S
N1026      N1027   1.318       .  A
N1026      C1030   1.349       .  A
N1027      C1028   1.333       .  A
C1028      C1029   1.375       .  A
C1028      H1031   1.081       .  S
C1029      C1030   1.386       .  A
C1029      C1053   1.461       .  S
C1030      H1032   1.081       .  S
N1033      N1034   1.322       .  A
N1033      C1037   1.340       .  A
N1033     Cu1041   2.039       .  S
N1034      C1035   1.349       .  A
N1034     Cu1040   2.106       .  S
C1035      C1036   1.391       .  A
C1035      H1038   1.082       .  S
C1036      C1037   1.374       .  A
C1036      C1150   1.470       .  S
C1037      H1039   1.082       .  S
Cu1040     N1043   2.106       .  S
Cu1041     N1051   2.038       .  S
Cu1042     N1044   2.061       .  S
Cu1042     N1302   2.057       .  S
N1043      N1044   1.323       .  A
N1043      C1047   1.354       .  A
N1044      C1045   1.335       .  A
C1045      C1046   1.384       .  A
C1045      H1048   1.079       .  S
C1046      C1047   1.395       .  A
C1046      C1320   1.493       .  S
C1047      H1049   1.081       .  S
N1050      C1054   1.348       .  A
N1051      N1302   1.317       .  A
N1051      C1304   1.335       .  A
C1052      C1053   1.378       .  A
C1052      H1055   1.081       .  S
C1053      C1054   1.384       .  A
C1054      H1056   1.082       .  S
C1057      C1062   1.422   1_655  A
C1057      C1249   1.514       .  S
C1058      C1309   1.411       .  A
C1058      C1059   1.398       .  A
C1058      H1063   1.067       .  S
C1059      C1060   1.394       .  A
C1060      C1313   1.399   1_655  A
C1060      H1064   1.074       .  S
C1061      C1062   1.407       .  A
C1061      C1088   1.492       .  S
C1062      H1065   1.081       .  S
C1066      C1067   1.422       .  A
C1066      C1071   1.413   1_655  A
C1066      C1252   1.515       .  S
C1067      C1068   1.406       .  A
C1067      H1072   1.081       .  S
C1068      C1069   1.401       .  A
C1069      C1070   1.395   1_655  A
C1069      H1073   1.075       .  S
C1070      C1071   1.398       .  A
C1070      C1112   1.485       .  S
C1071      H1074   1.068       .  S
N1075      N1076   1.321       .  A
N1075      C1079   1.340       .  A
N1076      C1077   1.347       .  A
N1076     Cu1082   2.095       .  S
C1077      C1078   1.388       .  A
C1077      H1080   1.081       .  S
C1078      C1079   1.373       .  A
C1078      C1216   1.465       .  S
H1081      C1331   1.082       .  S
Cu1082     N1085   2.096       .  S
Cu1083     N1327   2.035       .  S
Cu1083     N1093   2.034       .  S
Cu1084     N1086   2.068       .  S
Cu1084     N1092   2.065       .  S
N1085      C1089   1.353       .  A
N1086      N1337   1.323       .  A
N1086      C1087   1.335       .  A
C1087      C1340   1.386       .  A
C1087      H1090   1.079       .  S
C1088      C1089   1.393       .  A
C1089      H1091   1.081       .  S
N1092      N1093   1.317       .  A
N1092      C1096   1.348       .  A
N1093      C1094   1.335       .  A
C1094      C1095   1.377       .  A
C1094      H1097   1.081       .  S
C1095      C1096   1.386       .  A
C1095      C1119   1.462       .  S
C1096      H1098   1.081       .  S
N1099      N1100   1.321       .  A
N1099      C1103   1.342       .  A
N1099     Cu1107   2.047       .  S
N1100      C1101   1.347       .  A
N1100     Cu1106   2.090       .  S
C1101      C1102   1.388       .  A
C1102      C1103   1.377       .  A
C1102      C1192   1.470       .  S
C1103      H1105   1.082       .  S
H1104      C1353   1.082       .  S
Cu1106     N1109   2.091       .  S
Cu1107     N1117   2.046       .  S
Cu1108     N1110   2.067       .  S
Cu1108     N1116   2.064       .  S
N1109      N1110   1.323       .  A
N1109      C1113   1.349       .  A
N1110      C1111   1.339       .  A
C1111      C1112   1.384       .  A
C1111      H1114   1.081       .  S
C1112      C1113   1.389       .  A
H1115      C1365   1.081       .  S
N1116      N1117   1.319       .  A
N1116      C1120   1.348       .  A
N1117      C1118   1.336       .  A
C1118      C1119   1.378       .  A
C1118      H1121   1.081       .  S
C1119      C1120   1.384       .  A
C1120      H1122   1.081       .  S
N1123      N1124   1.320       .  A
N1123      C1127   1.340       .  A
N1123     Cu1131   2.036       .  S
N1124      C1125   1.346       .  A
N1124     Cu1130   2.084       .  S
C1125      C1126   1.387       .  A
C1125      H1128   1.082       .  S
C1126      C1127   1.374       .  A
C1127      H1129   1.082       .  S
Cu1130     N1133   2.085       .  S
Cu1131     N1141   2.036       .  S
Cu1132     N1134   2.093       .  S
Cu1132     N1140   2.089       .  S
N1133      N1134   1.325       .  A
N1133      C1137   1.352       .  A
N1134      C1135   1.338       .  A
C1135      C1136   1.389       .  A
C1135      H1138   1.081       .  S
C1136      C1137   1.387       .  A
C1136      C1425   1.490       .  S
C1137      H1139   1.082       .  S
N1140      N1141   1.318       .  A
N1140      C1144   1.353       .  A
N1141      C1142   1.335       .  A
C1142      C1143   1.377       .  A
C1142      H1145   1.081       .  S
C1143      C1144   1.391       .  A
C1143      C1167   1.471   1_556  S
C1144      H1146   1.081       .  S
N1147      N1148   1.322       .  A
N1147      C1151   1.342       .  A
N1147     Cu1155   2.047       .  S
N1148      C1149   1.347       .  A
N1148     Cu1154   2.096       .  S
C1149      C1150   1.389       .  A
C1149      H1152   1.081       .  S
C1150      C1151   1.375       .  A
C1151      H1153   1.082       .  S
Cu1154     N1157   2.096       .  S
Cu1155     N1165   2.048       .  S
Cu1156     N1158   2.078       .  S
Cu1156     N1416   2.075       .  S
N1157      N1158   1.323       .  A
N1157      C1161   1.353       .  A
N1158      C1159   1.336       .  A
C1159      C1160   1.389       .  A
C1159      H1414   1.079       .  S
C1160      C1161   1.393       .  A
C1160      C1434   1.496       .  S
C1161      H1163   1.081       .  S
N1164      C1168   1.352       .  A
N1165      N1416   1.318       .  A
N1165      C1418   1.336       .  A
C1166      C1167   1.380       .  A
C1166      H1169   1.081       .  S
C1167      C1168   1.388       .  A
C1168      H1170   1.081       .  S
C1171      C1172   1.423       .  A
C1171      C1176   1.422       .  A
C1171      C1237   1.523       .  S
C1172      C1173   1.407       .  A
C1172      H1177   1.081       .  S
C1173      C1174   1.393       .  A
C1174      C1175   1.394       .  A
C1174      H1178   1.074       .  S
C1175      C1176   1.407       .  A
C1175      C1226   1.494       .  S
C1176      H1179   1.071       .  S
C1180      C1181   1.423       .  A
C1180      C1185   1.424       .  A
C1180      C1240   1.525       .  S
C1181      C1182   1.408       .  A
C1181      H1186   1.071       .  S
C1182      C1183   1.396       .  A
C1183      C1184   1.394       .  A
C1183      H1187   1.075       .  S
C1184      C1185   1.406       .  A
C1184      C1202   1.490       .  S
C1185      H1188   1.081       .  S
N1189      N1190   1.322       .  A
N1189      C1193   1.342       .  A
N1189     Cu1197   2.051       .  S
N1190      C1191   1.347       .  A
N1190     Cu1196   2.092       .  S
C1191      C1192   1.388       .  A
C1191      H1194   1.082       .  S
C1192      C1193   1.377       .  A
C1193      H1195   1.082       .  S
Cu1196     N1199   2.093       .  S
Cu1197     N1207   2.051       .  S
Cu1198     N1200   2.088       .  S
Cu1198     N1206   2.084       .  S
N1199      N1200   1.325       .  A
N1199      C1203   1.353       .  A
N1200      C1201   1.340       .  A
C1201      C1202   1.388       .  A
C1201      H1204   1.081       .  S
C1202      C1203   1.389       .  A
C1203      H1205   1.082       .  S
N1206      N1207   1.319       .  A
N1206      C1210   1.352       .  A
N1207      C1208   1.337       .  A
C1208      C1209   1.380       .  A
C1208      H1211   1.081       .  S
C1209      C1210   1.389       .  A
C1209      C1233   1.473   1_554  S
C1210      H1212   1.082       .  S
N1213      N1214   1.321       .  A
N1213      C1217   1.340       .  A
N1213     Cu1221   2.040       .  S
N1214      C1215   1.346       .  A
N1214     Cu1220   2.086       .  S
C1215      C1216   1.388       .  A
C1215      H1218   1.082       .  S
C1216      C1217   1.374       .  A
C1217      H1219   1.082       .  S
Cu1220     N1223   2.086       .  S
Cu1221     N1231   2.041       .  S
Cu1222     N1224   2.089       .  S
Cu1222     N1230   2.087       .  S
N1223      N1224   1.324       .  A
N1223      C1227   1.351       .  A
N1224      C1225   1.338       .  A
C1225      C1226   1.391       .  A
C1225      H1228   1.079       .  S
C1226      C1227   1.390       .  A
C1227      H1229   1.081       .  S
N1230      N1231   1.318       .  A
C1232      N1483   1.336       .  A
C1232      C1233   1.378       .  A
C1232      H1235   1.081       .  S
C1233      C1234   1.391       .  A
C1234      N1482   1.353       .  A
C1234      H1236   1.081       .  S
C1237      C1238   1.409       .  A
C1238      C1239   1.406       .  A
C1238      H1247   1.082       .  S
C1239      C1240   1.427       .  A
C1239      S1495   1.799       .  S
C1241      C1492   1.410       .  A
C1241      C1242   1.404       .  A
C1241      H1248   1.082       .  S
C1242      C1489   1.426       .  A
C1242      S1244   1.799       .  S
S1243      H1246   1.384       .  S
S1244      H1245   1.384       .  S
C1249      C1254   1.427       .  A
C1250      C1501   1.407   1_455  A
C1250      C1251   1.399   1_556  A
C1250      H1259   1.082       .  S
C1251      C1504   1.426   1_455  A
C1251      S1255   1.800       .  S
C1252      C1253   1.407       .  A
C1253      C1254   1.400   1_554  A
C1253      H1260   1.082       .  S
C1254      S1256   1.802       .  S
S1255      H1258   1.379       .  S
S1256      H1257   1.377       .  S
N1261      N1262   1.320       .  A
N1261      C1265   1.339       .  A
N1261     Cu1269   2.032       .  S
N1262      C1263   1.346       .  A
N1262     Cu1268   2.085       .  S
C1263      C1264   1.388       .  A
C1263      H1266   1.082       .  S
C1264      C1265   1.374       .  A
C1264      C1378   1.463       .  S
C1265      H1267   1.082       .  S
Cu1268     N1271   2.086       .  S
Cu1269     N1279   2.032       .  S
Cu1270     N1272   2.070       .  S
Cu1270     N1278   2.067       .  S
N1271      N1272   1.324       .  A
N1271      C1275   1.349       .  A
N1272      C1273   1.338       .  A
C1273      C1274   1.384       .  A
C1273      H1276   1.080       .  S
C1274      C1275   1.388       .  A
C1274      C1311   1.485       .  S
C1275      H1277   1.081       .  S
N1278      N1279   1.318       .  A
N1278      C1282   1.349       .  A
N1279      C1280   1.333       .  A
C1280      C1281   1.375       .  A
C1280      H1283   1.081       .  S
C1281      C1282   1.386       .  A
C1281      C1305   1.461       .  S
C1282      H1284   1.081       .  S
N1285      N1286   1.322       .  A
N1285      C1289   1.340       .  A
N1285     Cu1293   2.039       .  S
N1286      C1287   1.349       .  A
N1286     Cu1292   2.106       .  S
C1287      C1288   1.391       .  A
C1287      H1290   1.082       .  S
C1288      C1289   1.374       .  A
C1288      C1402   1.470       .  S
C1289      H1291   1.082       .  S
Cu1292     N1295   2.106       .  S
Cu1293     N1303   2.038       .  S
Cu1294     N1296   2.061       .  S
Cu1294     N1554   2.057       .  S
N1295      N1296   1.323       .  A
N1295      C1299   1.354       .  A
N1296      C1297   1.335       .  A
C1297      C1298   1.384       .  A
C1297      H1300   1.079       .  S
C1298      C1299   1.395       .  A
C1298      C1572   1.493       .  S
C1299      H1301   1.081       .  S
N1302      C1306   1.348       .  A
N1303      N1554   1.317       .  A
N1303      C1556   1.335       .  A
C1304      C1305   1.378       .  A
C1304      H1307   1.081       .  S
C1305      C1306   1.384       .  A
C1306      H1308   1.082       .  S
C1309      C1314   1.422   1_655  A
C1309      C1501   1.514       .  S
C1310      C1561   1.411       .  A
C1310      C1311   1.398       .  A
C1310      H1315   1.067       .  S
C1311      C1312   1.394       .  A
C1312      C1565   1.399   1_655  A
C1312      H1316   1.074       .  S
C1313      C1314   1.407       .  A
C1313      C1340   1.492       .  S
C1314      H1317   1.081       .  S
C1318      C1319   1.422       .  A
C1318      C1323   1.413   1_655  A
C1318      C1504   1.515       .  S
C1319      C1320   1.406       .  A
C1319      H1324   1.081       .  S
C1320      C1321   1.401       .  A
C1321      C1322   1.395   1_655  A
C1321      H1325   1.075       .  S
C1322      C1323   1.398       .  A
C1322      C1364   1.485       .  S
C1323      H1326   1.068       .  S
N1327      N1328   1.321       .  A
N1327      C1331   1.340       .  A
N1328      C1329   1.347       .  A
N1328     Cu1334   2.095       .  S
C1329      C1330   1.388       .  A
C1329      H1332   1.081       .  S
C1330      C1331   1.373       .  A
C1330      C1468   1.465       .  S
H1333      C1583   1.082       .  S
Cu1334     N1337   2.096       .  S
Cu1335     N1579   2.035       .  S
Cu1335     N1345   2.034       .  S
Cu1336     N1338   2.068       .  S
Cu1336     N1344   2.065       .  S
N1337      C1341   1.353       .  A
N1338      N1589   1.323       .  A
N1338      C1339   1.335       .  A
C1339      C1592   1.386       .  A
C1339      H1342   1.079       .  S
C1340      C1341   1.393       .  A
C1341      H1343   1.081       .  S
N1344      N1345   1.317       .  A
N1344      C1348   1.348       .  A
N1345      C1346   1.335       .  A
C1346      C1347   1.377       .  A
C1346      H1349   1.081       .  S
C1347      C1348   1.386       .  A
C1347      C1371   1.462       .  S
C1348      H1350   1.081       .  S
N1351      N1352   1.321       .  A
N1351      C1355   1.342       .  A
N1351     Cu1359   2.047       .  S
N1352      C1353   1.347       .  A
N1352     Cu1358   2.090       .  S
C1353      C1354   1.388       .  A
C1354      C1355   1.377       .  A
C1354      C1444   1.470       .  S
C1355      H1357   1.082       .  S
H1356      C1605   1.082       .  S
Cu1358     N1361   2.091       .  S
Cu1359     N1369   2.046       .  S
Cu1360     N1362   2.067       .  S
Cu1360     N1368   2.064       .  S
N1361      N1362   1.323       .  A
N1361      C1365   1.349       .  A
N1362      C1363   1.339       .  A
C1363      C1364   1.384       .  A
C1363      H1366   1.081       .  S
C1364      C1365   1.389       .  A
H1367      C1617   1.081       .  S
N1368      N1369   1.319       .  A
N1368      C1372   1.348       .  A
N1369      C1370   1.336       .  A
C1370      C1371   1.378       .  A
C1370      H1373   1.081       .  S
C1371      C1372   1.384       .  A
C1372      H1374   1.081       .  S
N1375      N1376   1.320       .  A
N1375      C1379   1.340       .  A
N1375     Cu1383   2.036       .  S
N1376      C1377   1.346       .  A
N1376     Cu1382   2.084       .  S
C1377      C1378   1.387       .  A
C1377      H1380   1.082       .  S
C1378      C1379   1.374       .  A
C1379      H1381   1.082       .  S
Cu1382     N1385   2.085       .  S
Cu1383     N1393   2.036       .  S
Cu1384     N1386   2.093       .  S
Cu1384     N1392   2.089       .  S
N1385      N1386   1.325       .  A
N1385      C1389   1.352       .  A
N1386      C1387   1.338       .  A
C1387      C1388   1.389       .  A
C1387      H1390   1.081       .  S
C1388      C1389   1.387       .  A
C1388      C1677   1.490       .  S
C1389      H1391   1.082       .  S
N1392      N1393   1.318       .  A
N1392      C1396   1.354       .  A
N1393      C1394   1.335       .  A
C1394      C1395   1.377       .  A
C1394      H1397   1.081       .  S
C1395      C1396   1.391       .  A
C1395      C1419   1.471   1_556  S
C1396      H1398   1.081       .  S
N1399      N1400   1.322       .  A
N1399      C1403   1.342       .  A
N1399     Cu1407   2.047       .  S
N1400      C1401   1.347       .  A
N1400     Cu1406   2.096       .  S
C1401      C1402   1.389       .  A
C1401      H1404   1.081       .  S
C1402      C1403   1.375       .  A
C1403      H1405   1.082       .  S
Cu1406     N1409   2.096       .  S
Cu1407     N1417   2.048       .  S
Cu1408     N1410   2.078       .  S
Cu1408     N1668   2.075       .  S
N1409      N1410   1.323       .  A
N1409      C1413   1.353       .  A
N1410      C1411   1.336       .  A
C1411      C1412   1.389       .  A
C1411      H1666   1.079       .  S
C1412      C1413   1.393       .  A
C1412      C1686   1.496       .  S
C1413      H1415   1.081       .  S
N1416      C1420   1.352       .  A
N1417      N1668   1.318       .  A
N1417      C1670   1.336       .  A
C1418      C1419   1.380       .  A
C1418      H1421   1.081       .  S
C1419      C1420   1.388       .  A
C1420      H1422   1.081       .  S
C1423      C1424   1.423       .  A
C1423      C1428   1.422       .  A
C1423      C1489   1.523       .  S
C1424      C1425   1.407       .  A
C1424      H1429   1.081       .  S
C1425      C1426   1.393       .  A
C1426      C1427   1.394       .  A
C1426      H1430   1.074       .  S
C1427      C1428   1.407       .  A
C1427      C1478   1.494       .  S
C1428      H1431   1.071       .  S
C1432      C1433   1.423       .  A
C1432      C1437   1.424       .  A
C1432      C1492   1.525       .  S
C1433      C1434   1.408       .  A
C1433      H1438   1.071       .  S
C1434      C1435   1.396       .  A
C1435      C1436   1.394       .  A
C1435      H1439   1.075       .  S
C1436      C1437   1.406       .  A
C1436      C1454   1.490       .  S
C1437      H1440   1.081       .  S
N1441      N1442   1.322       .  A
N1441      C1445   1.342       .  A
N1441     Cu1449   2.051       .  S
N1442      C1443   1.347       .  A
N1442     Cu1448   2.092       .  S
C1443      C1444   1.388       .  A
C1443      H1446   1.082       .  S
C1444      C1445   1.377       .  A
C1445      H1447   1.082       .  S
Cu1448     N1451   2.093       .  S
Cu1449     N1459   2.051       .  S
Cu1450     N1452   2.088       .  S
Cu1450     N1458   2.084       .  S
N1451      N1452   1.325       .  A
N1451      C1455   1.353       .  A
N1452      C1453   1.340       .  A
C1453      C1454   1.388       .  A
C1453      H1456   1.081       .  S
C1454      C1455   1.389       .  A
C1455      H1457   1.082       .  S
N1458      N1459   1.319       .  A
N1458      C1462   1.352       .  A
N1459      C1460   1.337       .  A
C1460      C1461   1.380       .  A
C1460      H1463   1.081       .  S
C1461      C1462   1.389       .  A
C1461      C1485   1.473   1_554  S
C1462      H1464   1.082       .  S
N1465      N1466   1.321       .  A
N1465      C1469   1.340       .  A
N1465     Cu1473   2.040       .  S
N1466      C1467   1.346       .  A
N1466     Cu1472   2.086       .  S
C1467      C1468   1.388       .  A
C1467      H1470   1.082       .  S
C1468      C1469   1.374       .  A
C1469      H1471   1.082       .  S
Cu1472     N1475   2.086       .  S
Cu1473     N1483   2.041       .  S
Cu1474     N1476   2.089       .  S
Cu1474     N1482   2.087       .  S
N1475      N1476   1.324       .  A
N1475      C1479   1.351       .  A
N1476      C1477   1.338       .  A
C1477      C1478   1.391       .  A
C1477      H1480   1.079       .  S
C1478      C1479   1.390       .  A
C1479      H1481   1.081       .  S
N1482      N1483   1.318       .  A
C1484      N1735   1.336       .  A
C1484      C1485   1.378       .  A
C1484      H1487   1.081       .  S
C1485      C1486   1.391       .  A
C1486      N1734   1.353       .  A
C1486      H1488   1.081       .  S
C1489      C1490   1.409       .  A
C1490      C1491   1.406       .  A
C1490      H1499   1.082       .  S
C1491      C1492   1.427       .  A
C1491      S1747   1.799       .  S
C1493      C1744   1.410       .  A
C1493      C1494   1.404       .  A
C1493      H1500   1.082       .  S
C1494      C1741   1.426       .  A
C1494      S1496   1.799       .  S
S1495      H1498   1.384       .  S
S1496      H1497   1.384       .  S
C1501      C1506   1.427       .  A
C1502      C1753   1.407   1_455  A
C1502      C1503   1.399   1_556  A
C1502      H1511   1.082       .  S
C1503      C1756   1.426   1_455  A
C1503      S1507   1.800       .  S
C1504      C1505   1.407       .  A
C1505      C1506   1.400   1_554  A
C1505      H1512   1.082       .  S
C1506      S1508   1.802       .  S
S1507      H1510   1.379       .  S
S1508      H1509   1.377       .  S
N1513      N1514   1.320       .  A
N1513      C1517   1.339       .  A
N1513     Cu1521   2.032       .  S
N1514      C1515   1.346       .  A
N1514     Cu1520   2.085       .  S
C1515      C1516   1.388       .  A
C1515      H1518   1.082       .  S
C1516      C1517   1.374       .  A
C1516      C1630   1.463       .  S
C1517      H1519   1.082       .  S
Cu1520     N1523   2.086       .  S
Cu1521     N1531   2.032       .  S
Cu1522     N1524   2.070       .  S
Cu1522     N1530   2.067       .  S
N1523      N1524   1.324       .  A
N1523      C1527   1.349       .  A
N1524      C1525   1.338       .  A
C1525      C1526   1.384       .  A
C1525      H1528   1.080       .  S
C1526      C1527   1.388       .  A
C1526      C1563   1.485       .  S
C1527      H1529   1.081       .  S
N1530      N1531   1.318       .  A
N1530      C1534   1.349       .  A
N1531      C1532   1.333       .  A
C1532      C1533   1.375       .  A
C1532      H1535   1.081       .  S
C1533      C1534   1.386       .  A
C1533      C1557   1.461       .  S
C1534      H1536   1.081       .  S
N1537      N1538   1.322       .  A
N1537      C1541   1.340       .  A
N1537     Cu1545   2.039       .  S
N1538      C1539   1.349       .  A
N1538     Cu1544   2.106       .  S
C1539      C1540   1.391       .  A
C1539      H1542   1.082       .  S
C1540      C1541   1.374       .  A
C1540      C1654   1.470       .  S
C1541      H1543   1.082       .  S
Cu1544     N1547   2.106       .  S
Cu1545     N1555   2.038       .  S
Cu1546     N1548   2.061       .  S
Cu1546     N1806   2.057       .  S
N1547      N1548   1.323       .  A
N1547      C1551   1.354       .  A
N1548      C1549   1.335       .  A
C1549      C1550   1.384       .  A
C1549      H1552   1.079       .  S
C1550      C1551   1.395       .  A
C1550      C1824   1.493       .  S
C1551      H1553   1.081       .  S
N1554      C1558   1.348       .  A
N1555      N1806   1.317       .  A
N1555      C1808   1.335       .  A
C1556      C1557   1.378       .  A
C1556      H1559   1.081       .  S
C1557      C1558   1.384       .  A
C1558      H1560   1.082       .  S
C1561      C1566   1.422   1_655  A
C1561      C1753   1.514       .  S
C1562      C1813   1.411       .  A
C1562      C1563   1.398       .  A
C1562      H1567   1.067       .  S
C1563      C1564   1.394       .  A
C1564      C1817   1.399   1_655  A
C1564      H1568   1.074       .  S
C1565      C1566   1.407       .  A
C1565      C1592   1.492       .  S
C1566      H1569   1.081       .  S
C1570      C1571   1.422       .  A
C1570      C1575   1.413   1_655  A
C1570      C1756   1.515       .  S
C1571      C1572   1.406       .  A
C1571      H1576   1.081       .  S
C1572      C1573   1.401       .  A
C1573      C1574   1.395   1_655  A
C1573      H1577   1.075       .  S
C1574      C1575   1.398       .  A
C1574      C1616   1.485       .  S
C1575      H1578   1.068       .  S
N1579      N1580   1.321       .  A
N1579      C1583   1.340       .  A
N1580      C1581   1.347       .  A
N1580     Cu1586   2.095       .  S
C1581      C1582   1.388       .  A
C1581      H1584   1.081       .  S
C1582      C1583   1.373       .  A
C1582      C1720   1.465       .  S
H1585      C1835   1.082       .  S
Cu1586     N1589   2.096       .  S
Cu1587     N1831   2.035       .  S
Cu1587     N1597   2.034       .  S
Cu1588     N1590   2.068       .  S
Cu1588     N1596   2.065       .  S
N1589      C1593   1.353       .  A
N1590      N1841   1.323       .  A
N1590      C1591   1.335       .  A
C1591      C1844   1.386       .  A
C1591      H1594   1.079       .  S
C1592      C1593   1.393       .  A
C1593      H1595   1.081       .  S
N1596      N1597   1.317       .  A
N1596      C1600   1.348       .  A
N1597      C1598   1.335       .  A
C1598      C1599   1.377       .  A
C1598      H1601   1.081       .  S
C1599      C1600   1.386       .  A
C1599      C1623   1.462       .  S
C1600      H1602   1.081       .  S
N1603      N1604   1.321       .  A
N1603      C1607   1.342       .  A
N1603     Cu1611   2.047       .  S
N1604      C1605   1.347       .  A
N1604     Cu1610   2.090       .  S
C1605      C1606   1.388       .  A
C1606      C1607   1.377       .  A
C1606      C1696   1.470       .  S
C1607      H1609   1.082       .  S
H1608      C1857   1.082       .  S
Cu1610     N1613   2.091       .  S
Cu1611     N1621   2.046       .  S
Cu1612     N1614   2.067       .  S
Cu1612     N1620   2.064       .  S
N1613      N1614   1.323       .  A
N1613      C1617   1.349       .  A
N1614      C1615   1.339       .  A
C1615      C1616   1.384       .  A
C1615      H1618   1.081       .  S
C1616      C1617   1.389       .  A
H1619      C1869   1.081       .  S
N1620      N1621   1.319       .  A
N1620      C1624   1.348       .  A
N1621      C1622   1.336       .  A
C1622      C1623   1.378       .  A
C1622      H1625   1.081       .  S
C1623      C1624   1.384       .  A
C1624      H1626   1.081       .  S
N1627      N1628   1.320       .  A
N1627      C1631   1.340       .  A
N1627     Cu1635   2.036       .  S
N1628      C1629   1.346       .  A
N1628     Cu1634   2.084       .  S
C1629      C1630   1.387       .  A
C1629      H1632   1.082       .  S
C1630      C1631   1.374       .  A
C1631      H1633   1.082       .  S
Cu1634     N1637   2.085       .  S
Cu1635     N1645   2.036       .  S
Cu1636     N1638   2.093       .  S
Cu1636     N1644   2.089       .  S
N1637      N1638   1.325       .  A
N1637      C1641   1.352       .  A
N1638      C1639   1.338       .  A
C1639      C1640   1.389       .  A
C1639      H1642   1.081       .  S
C1640      C1641   1.387       .  A
C1640      C1929   1.490       .  S
C1641      H1643   1.082       .  S
N1644      N1645   1.318       .  A
N1644      C1648   1.354       .  A
N1645      C1646   1.335       .  A
C1646      C1647   1.377       .  A
C1646      H1649   1.081       .  S
C1647      C1648   1.391       .  A
C1647      C1671   1.471   1_556  S
C1648      H1650   1.081       .  S
N1651      N1652   1.322       .  A
N1651      C1655   1.342       .  A
N1651     Cu1659   2.047       .  S
N1652      C1653   1.347       .  A
N1652     Cu1658   2.096       .  S
C1653      C1654   1.389       .  A
C1653      H1656   1.081       .  S
C1654      C1655   1.375       .  A
C1655      H1657   1.082       .  S
Cu1658     N1661   2.096       .  S
Cu1659     N1669   2.048       .  S
Cu1660     N1662   2.078       .  S
Cu1660     N1920   2.075       .  S
N1661      N1662   1.323       .  A
N1661      C1665   1.353       .  A
N1662      C1663   1.336       .  A
C1663      C1664   1.389       .  A
C1663      H1918   1.079       .  S
C1664      C1665   1.393       .  A
C1664      C1938   1.496       .  S
C1665      H1667   1.081       .  S
N1668      C1672   1.352       .  A
N1669      N1920   1.318       .  A
N1669      C1922   1.336       .  A
C1670      C1671   1.380       .  A
C1670      H1673   1.081       .  S
C1671      C1672   1.388       .  A
C1672      H1674   1.081       .  S
C1675      C1676   1.423       .  A
C1675      C1680   1.422       .  A
C1675      C1741   1.523       .  S
C1676      C1677   1.407       .  A
C1676      H1681   1.081       .  S
C1677      C1678   1.393       .  A
C1678      C1679   1.394       .  A
C1678      H1682   1.074       .  S
C1679      C1680   1.407       .  A
C1679      C1730   1.494       .  S
C1680      H1683   1.071       .  S
C1684      C1685   1.423       .  A
C1684      C1689   1.424       .  A
C1684      C1744   1.525       .  S
C1685      C1686   1.408       .  A
C1685      H1690   1.071       .  S
C1686      C1687   1.396       .  A
C1687      C1688   1.394       .  A
C1687      H1691   1.075       .  S
C1688      C1689   1.406       .  A
C1688      C1706   1.490       .  S
C1689      H1692   1.081       .  S
N1693      N1694   1.322       .  A
N1693      C1697   1.342       .  A
N1693     Cu1701   2.051       .  S
N1694      C1695   1.347       .  A
N1694     Cu1700   2.092       .  S
C1695      C1696   1.388       .  A
C1695      H1698   1.082       .  S
C1696      C1697   1.377       .  A
C1697      H1699   1.082       .  S
Cu1700     N1703   2.093       .  S
Cu1701     N1711   2.051       .  S
Cu1702     N1704   2.088       .  S
Cu1702     N1710   2.084       .  S
N1703      N1704   1.325       .  A
N1703      C1707   1.353       .  A
N1704      C1705   1.340       .  A
C1705      C1706   1.388       .  A
C1705      H1708   1.081       .  S
C1706      C1707   1.389       .  A
C1707      H1709   1.082       .  S
N1710      N1711   1.319       .  A
N1710      C1714   1.352       .  A
N1711      C1712   1.337       .  A
C1712      C1713   1.380       .  A
C1712      H1715   1.081       .  S
C1713      C1714   1.389       .  A
C1713      C1737   1.473   1_554  S
C1714      H1716   1.082       .  S
N1717      N1718   1.321       .  A
N1717      C1721   1.340       .  A
N1717     Cu1725   2.040       .  S
N1718      C1719   1.346       .  A
N1718     Cu1724   2.086       .  S
C1719      C1720   1.388       .  A
C1719      H1722   1.082       .  S
C1720      C1721   1.374       .  A
C1721      H1723   1.082       .  S
Cu1724     N1727   2.086       .  S
Cu1725     N1735   2.041       .  S
Cu1726     N1728   2.089       .  S
Cu1726     N1734   2.087       .  S
N1727      N1728   1.324       .  A
N1727      C1731   1.351       .  A
N1728      C1729   1.338       .  A
C1729      C1730   1.391       .  A
C1729      H1732   1.079       .  S
C1730      C1731   1.390       .  A
C1731      H1733   1.081       .  S
N1734      N1735   1.318       .  A
C1736      N1987   1.336       .  A
C1736      C1737   1.378       .  A
C1736      H1739   1.081       .  S
C1737      C1738   1.391       .  A
C1738      N1986   1.353       .  A
C1738      H1740   1.081       .  S
C1741      C1742   1.409       .  A
C1742      C1743   1.406       .  A
C1742      H1751   1.082       .  S
C1743      C1744   1.427       .  A
C1743      S1999   1.799       .  S
C1745      C1996   1.410       .  A
C1745      C1746   1.404       .  A
C1745      H1752   1.082       .  S
C1746      C1993   1.426       .  A
C1746      S1748   1.799       .  S
S1747      H1750   1.384       .  S
S1748      H1749   1.384       .  S
C1753      C1758   1.427       .  A
C1754      C2005   1.407   1_455  A
C1754      C1755   1.399   1_556  A
C1754      H1763   1.082       .  S
C1755      C2008   1.426   1_455  A
C1755      S1759   1.800       .  S
C1756      C1757   1.407       .  A
C1757      C1758   1.400   1_554  A
C1757      H1764   1.082       .  S
C1758      S1760   1.802       .  S
S1759      H1762   1.379       .  S
S1760      H1761   1.377       .  S
N1765      N1766   1.320       .  A
N1765      C1769   1.339       .  A
N1765     Cu1773   2.032       .  S
N1766      C1767   1.346       .  A
N1766     Cu1772   2.085       .  S
C1767      C1768   1.388       .  A
C1767      H1770   1.082       .  S
C1768      C1769   1.374       .  A
C1768      C1882   1.463       .  S
C1769      H1771   1.082       .  S
Cu1772     N1775   2.086       .  S
Cu1773     N1783   2.032       .  S
Cu1774     N1776   2.070       .  S
Cu1774     N1782   2.067       .  S
N1775      N1776   1.324       .  A
N1775      C1779   1.349       .  A
N1776      C1777   1.338       .  A
C1777      C1778   1.384       .  A
C1777      H1780   1.080       .  S
C1778      C1779   1.388       .  A
C1778      C1815   1.485       .  S
C1779      H1781   1.081       .  S
N1782      N1783   1.318       .  A
N1782      C1786   1.349       .  A
N1783      C1784   1.333       .  A
C1784      C1785   1.375       .  A
C1784      H1787   1.081       .  S
C1785      C1786   1.386       .  A
C1785      C1809   1.461       .  S
C1786      H1788   1.081       .  S
N1789      N1790   1.322       .  A
N1789      C1793   1.340       .  A
N1789     Cu1797   2.039       .  S
N1790      C1791   1.349       .  A
N1790     Cu1796   2.106       .  S
C1791      C1792   1.391       .  A
C1791      H1794   1.082       .  S
C1792      C1793   1.374       .  A
C1792      C1906   1.470       .  S
C1793      H1795   1.082       .  S
Cu1796     N1799   2.106       .  S
Cu1797     N1807   2.038       .  S
Cu1798     N1800   2.061       .  S
Cu1798     N2058   2.057       .  S
N1799      N1800   1.323       .  A
N1799      C1803   1.354       .  A
N1800      C1801   1.335       .  A
C1801      C1802   1.384       .  A
C1801      H1804   1.079       .  S
C1802      C1803   1.395       .  A
C1802      C2076   1.493       .  S
C1803      H1805   1.081       .  S
N1806      C1810   1.348       .  A
N1807      N2058   1.317       .  A
N1807      C2060   1.335       .  A
C1808      C1809   1.378       .  A
C1808      H1811   1.081       .  S
C1809      C1810   1.384       .  A
C1810      H1812   1.082       .  S
C1813      C1818   1.422   1_655  A
C1813      C2005   1.514       .  S
C1814      C2065   1.411       .  A
C1814      C1815   1.398       .  A
C1814      H1819   1.067       .  S
C1815      C1816   1.394       .  A
C1816      C2069   1.399   1_655  A
C1816      H1820   1.074       .  S
C1817      C1818   1.407       .  A
C1817      C1844   1.492       .  S
C1818      H1821   1.081       .  S
C1822      C1823   1.422       .  A
C1822      C1827   1.413   1_655  A
C1822      C2008   1.515       .  S
C1823      C1824   1.406       .  A
C1823      H1828   1.081       .  S
C1824      C1825   1.401       .  A
C1825      C1826   1.395   1_655  A
C1825      H1829   1.075       .  S
C1826      C1827   1.398       .  A
C1826      C1868   1.485       .  S
C1827      H1830   1.068       .  S
N1831      N1832   1.321       .  A
N1831      C1835   1.340       .  A
N1832      C1833   1.347       .  A
N1832     Cu1838   2.095       .  S
C1833      C1834   1.388       .  A
C1833      H1836   1.081       .  S
C1834      C1835   1.373       .  A
C1834      C1972   1.465       .  S
H1837      C2087   1.082       .  S
Cu1838     N1841   2.096       .  S
Cu1839     N2083   2.035       .  S
Cu1839     N1849   2.034       .  S
Cu1840     N1842   2.068       .  S
Cu1840     N1848   2.065       .  S
N1841      C1845   1.353       .  A
N1842      N2093   1.323       .  A
N1842      C1843   1.335       .  A
C1843      C2096   1.386       .  A
C1843      H1846   1.079       .  S
C1844      C1845   1.393       .  A
C1845      H1847   1.081       .  S
N1848      N1849   1.317       .  A
N1848      C1852   1.348       .  A
N1849      C1850   1.335       .  A
C1850      C1851   1.377       .  A
C1850      H1853   1.081       .  S
C1851      C1852   1.386       .  A
C1851      C1875   1.462       .  S
C1852      H1854   1.081       .  S
N1855      N1856   1.321       .  A
N1855      C1859   1.342       .  A
N1855     Cu1863   2.047       .  S
N1856      C1857   1.347       .  A
N1856     Cu1862   2.090       .  S
C1857      C1858   1.388       .  A
C1858      C1859   1.377       .  A
C1858      C1948   1.470       .  S
C1859      H1861   1.082       .  S
H1860      C2109   1.082       .  S
Cu1862     N1865   2.091       .  S
Cu1863     N1873   2.046       .  S
Cu1864     N1866   2.067       .  S
Cu1864     N1872   2.064       .  S
N1865      N1866   1.323       .  A
N1865      C1869   1.349       .  A
N1866      C1867   1.339       .  A
C1867      C1868   1.384       .  A
C1867      H1870   1.081       .  S
C1868      C1869   1.389       .  A
H1871      C2121   1.081       .  S
N1872      N1873   1.319       .  A
N1872      C1876   1.348       .  A
N1873      C1874   1.336       .  A
C1874      C1875   1.378       .  A
C1874      H1877   1.081       .  S
C1875      C1876   1.384       .  A
C1876      H1878   1.081       .  S
N1879      N1880   1.320       .  A
N1879      C1883   1.340       .  A
N1879     Cu1887   2.036       .  S
N1880      C1881   1.346       .  A
N1880     Cu1886   2.084       .  S
C1881      C1882   1.387       .  A
C1881      H1884   1.082       .  S
C1882      C1883   1.374       .  A
C1883      H1885   1.082       .  S
Cu1886     N1889   2.085       .  S
Cu1887     N1897   2.036       .  S
Cu1888     N1890   2.093       .  S
Cu1888     N1896   2.089       .  S
N1889      N1890   1.325       .  A
N1889      C1893   1.352       .  A
N1890      C1891   1.338       .  A
C1891      C1892   1.389       .  A
C1891      H1894   1.081       .  S
C1892      C1893   1.387       .  A
C1892      C2181   1.490       .  S
C1893      H1895   1.082       .  S
N1896      N1897   1.318       .  A
N1896      C1900   1.353       .  A
N1897      C1898   1.335       .  A
C1898      C1899   1.377       .  A
C1898      H1901   1.081       .  S
C1899      C1900   1.391       .  A
C1899      C1923   1.471   1_556  S
C1900      H1902   1.081       .  S
N1903      N1904   1.322       .  A
N1903      C1907   1.342       .  A
N1903     Cu1911   2.047       .  S
N1904      C1905   1.347       .  A
N1904     Cu1910   2.096       .  S
C1905      C1906   1.389       .  A
C1905      H1908   1.081       .  S
C1906      C1907   1.375       .  A
C1907      H1909   1.082       .  S
Cu1910     N1913   2.096       .  S
Cu1911     N1921   2.048       .  S
Cu1912     N1914   2.078       .  S
Cu1912     N2172   2.075       .  S
N1913      N1914   1.323       .  A
N1913      C1917   1.353       .  A
N1914      C1915   1.336       .  A
C1915      C1916   1.389       .  A
C1915      H2170   1.079       .  S
C1916      C1917   1.393       .  A
C1916      C2190   1.496       .  S
C1917      H1919   1.081       .  S
N1920      C1924   1.352       .  A
N1921      N2172   1.318       .  A
N1921      C2174   1.336       .  A
C1922      C1923   1.380       .  A
C1922      H1925   1.081       .  S
C1923      C1924   1.388       .  A
C1924      H1926   1.081       .  S
C1927      C1928   1.423       .  A
C1927      C1932   1.422       .  A
C1927      C1993   1.523       .  S
C1928      C1929   1.407       .  A
C1928      H1933   1.081       .  S
C1929      C1930   1.393       .  A
C1930      C1931   1.394       .  A
C1930      H1934   1.074       .  S
C1931      C1932   1.407       .  A
C1931      C1982   1.494       .  S
C1932      H1935   1.071       .  S
C1936      C1937   1.423       .  A
C1936      C1941   1.424       .  A
C1936      C1996   1.525       .  S
C1937      C1938   1.408       .  A
C1937      H1942   1.071       .  S
C1938      C1939   1.396       .  A
C1939      C1940   1.394       .  A
C1939      H1943   1.075       .  S
C1940      C1941   1.406       .  A
C1940      C1958   1.490       .  S
C1941      H1944   1.081       .  S
N1945      N1946   1.322       .  A
N1945      C1949   1.342       .  A
N1945     Cu1953   2.051       .  S
N1946      C1947   1.347       .  A
N1946     Cu1952   2.092       .  S
C1947      C1948   1.388       .  A
C1947      H1950   1.082       .  S
C1948      C1949   1.377       .  A
C1949      H1951   1.082       .  S
Cu1952     N1955   2.093       .  S
Cu1953     N1963   2.051       .  S
Cu1954     N1956   2.088       .  S
Cu1954     N1962   2.084       .  S
N1955      N1956   1.325       .  A
N1955      C1959   1.353       .  A
N1956      C1957   1.340       .  A
C1957      C1958   1.388       .  A
C1957      H1960   1.081       .  S
C1958      C1959   1.389       .  A
C1959      H1961   1.082       .  S
N1962      N1963   1.319       .  A
N1962      C1966   1.352       .  A
N1963      C1964   1.337       .  A
C1964      C1965   1.380       .  A
C1964      H1967   1.081       .  S
C1965      C1966   1.389       .  A
C1965      C1989   1.473   1_554  S
C1966      H1968   1.082       .  S
N1969      N1970   1.321       .  A
N1969      C1973   1.340       .  A
N1969     Cu1977   2.040       .  S
N1970      C1971   1.346       .  A
N1970     Cu1976   2.086       .  S
C1971      C1972   1.388       .  A
C1971      H1974   1.082       .  S
C1972      C1973   1.374       .  A
C1973      H1975   1.082       .  S
Cu1976     N1979   2.086       .  S
Cu1977     N1987   2.041       .  S
Cu1978     N1980   2.089       .  S
Cu1978     N1986   2.087       .  S
N1979      N1980   1.324       .  A
N1979      C1983   1.351       .  A
N1980      C1981   1.338       .  A
C1981      C1982   1.391       .  A
C1981      H1984   1.079       .  S
C1982      C1983   1.390       .  A
C1983      H1985   1.081       .  S
N1986      N1987   1.318       .  A
C1988      N2239   1.336       .  A
C1988      C1989   1.378       .  A
C1988      H1991   1.081       .  S
C1989      C1990   1.391       .  A
C1990      N2238   1.353       .  A
C1990      H1992   1.081       .  S
C1993      C1994   1.409       .  A
C1994      C1995   1.406       .  A
C1994      H2003   1.082       .  S
C1995      C1996   1.427       .  A
C1995      S2251   1.799       .  S
C1997      C2248   1.410       .  A
C1997      C1998   1.404       .  A
C1997      H2004   1.082       .  S
C1998      C2245   1.426       .  A
C1998      S2000   1.799       .  S
S1999      H2002   1.384       .  S
S2000      H2001   1.384       .  S
C2005      C2010   1.427       .  A
C2006      C2257   1.407   1_455  A
C2006      C2007   1.399   1_556  A
C2006      H2015   1.082       .  S
C2007      C2260   1.426   1_455  A
C2007      S2011   1.800       .  S
C2008      C2009   1.407       .  A
C2009      C2010   1.400   1_554  A
C2009      H2016   1.082       .  S
C2010      S2012   1.802       .  S
S2011      H2014   1.379       .  S
S2012      H2013   1.377       .  S
N2017      N2018   1.320       .  A
N2017      C2021   1.339       .  A
N2017     Cu2025   2.032       .  S
N2018      C2019   1.346       .  A
N2018     Cu2024   2.085       .  S
C2019      C2020   1.388       .  A
C2019      H2022   1.082       .  S
C2020      C2021   1.374       .  A
C2020      C2134   1.463       .  S
C2021      H2023   1.082       .  S
Cu2024     N2027   2.086       .  S
Cu2025     N2035   2.032       .  S
Cu2026     N2028   2.070       .  S
Cu2026     N2034   2.067       .  S
N2027      N2028   1.324       .  A
N2027      C2031   1.349       .  A
N2028      C2029   1.338       .  A
C2029      C2030   1.384       .  A
C2029      H2032   1.080       .  S
C2030      C2031   1.388       .  A
C2030      C2067   1.485       .  S
C2031      H2033   1.081       .  S
N2034      N2035   1.318       .  A
N2034      C2038   1.349       .  A
N2035      C2036   1.333       .  A
C2036      C2037   1.375       .  A
C2036      H2039   1.081       .  S
C2037      C2038   1.386       .  A
C2037      C2061   1.461       .  S
C2038      H2040   1.081       .  S
N2041      N2042   1.322       .  A
N2041      C2045   1.340       .  A
N2041     Cu2049   2.039       .  S
N2042      C2043   1.349       .  A
N2042     Cu2048   2.106       .  S
C2043      C2044   1.391       .  A
C2043      H2046   1.082       .  S
C2044      C2045   1.374       .  A
C2044      C2158   1.470       .  S
C2045      H2047   1.082       .  S
Cu2048     N2051   2.106       .  S
Cu2049     N2059   2.038       .  S
Cu2050     N2052   2.061       .  S
N2051      N2052   1.323       .  A
N2051      C2055   1.354       .  A
N2052      C2053   1.335       .  A
C2053      C2054   1.384       .  A
C2053      H2056   1.079       .  S
C2054      C2055   1.395       .  A
C2055      H2057   1.081       .  S
N2058      C2062   1.348       .  A
C2060      C2061   1.378       .  A
C2060      H2063   1.081       .  S
C2061      C2062   1.384       .  A
C2062      H2064   1.082       .  S
C2065      C2070   1.422   1_655  A
C2065      C2257   1.514       .  S
C2066      C2067   1.398       .  A
C2066      H2071   1.067       .  S
C2067      C2068   1.394   1_565  A
C2068      H2072   1.074   1_545  S
C2069      C2070   1.407       .  A
C2069      C2096   1.492       .  S
C2070      H2073   1.081       .  S
C2074      C2075   1.422       .  A
C2074      C2079   1.413   1_655  A
C2074      C2260   1.515       .  S
C2075      C2076   1.406       .  A
C2075      H2080   1.081       .  S
C2076      C2077   1.401       .  A
C2077      C2078   1.395   1_655  A
C2077      H2081   1.075       .  S
C2078      C2079   1.398       .  A
C2078      C2120   1.485       .  S
C2079      H2082   1.068       .  S
N2083      N2084   1.321       .  A
N2083      C2087   1.340       .  A
N2084      C2085   1.347       .  A
N2084     Cu2090   2.095       .  S
C2085      C2086   1.388       .  A
C2085      H2088   1.081       .  S
C2086      C2087   1.373       .  A
C2086      C2224   1.465       .  S
Cu2090     N2093   2.096       .  S
Cu2091     N2101   2.034       .  S
Cu2092     N2094   2.068   1_565  S
Cu2092     N2100   2.065       .  S
N2093      C2097   1.353       .  A
N2094      C2095   1.335       .  A
C2095      H2098   1.079       .  S
C2096      C2097   1.393       .  A
C2097      H2099   1.081       .  S
N2100      N2101   1.317       .  A
N2100      C2104   1.348       .  A
N2101      C2102   1.335       .  A
C2102      C2103   1.377       .  A
C2102      H2105   1.081       .  S
C2103      C2104   1.386       .  A
C2103      C2127   1.462       .  S
C2104      H2106   1.081       .  S
N2107      N2108   1.321       .  A
N2107      C2111   1.342       .  A
N2107     Cu2115   2.047       .  S
N2108      C2109   1.347       .  A
N2108     Cu2114   2.090       .  S
C2109      C2110   1.388       .  A
C2110      C2111   1.377       .  A
C2110      C2200   1.470       .  S
C2111      H2113   1.082       .  S
Cu2114     N2117   2.091       .  S
Cu2115     N2125   2.046       .  S
Cu2116     N2118   2.067       .  S
Cu2116     N2124   2.064       .  S
N2117      N2118   1.323       .  A
N2117      C2121   1.349       .  A
N2118      C2119   1.339       .  A
C2119      C2120   1.384       .  A
C2119      H2122   1.081       .  S
C2120      C2121   1.389       .  A
N2124      N2125   1.319       .  A
N2124      C2128   1.348       .  A
N2125      C2126   1.336       .  A
C2126      C2127   1.378       .  A
C2126      H2129   1.081       .  S
C2127      C2128   1.384       .  A
C2128      H2130   1.081       .  S
N2131      N2132   1.320       .  A
N2131      C2135   1.340       .  A
N2131     Cu2139   2.036       .  S
N2132      C2133   1.346       .  A
N2132     Cu2138   2.084       .  S
C2133      C2134   1.387       .  A
C2133      H2136   1.082       .  S
C2134      C2135   1.374       .  A
C2135      H2137   1.082       .  S
Cu2138     N2141   2.085       .  S
Cu2139     N2149   2.036       .  S
Cu2140     N2142   2.093       .  S
Cu2140     N2148   2.089       .  S
N2141      N2142   1.325       .  A
N2141      C2145   1.352       .  A
N2142      C2143   1.338       .  A
C2143      C2144   1.389       .  A
C2143      H2146   1.081       .  S
C2144      C2145   1.387       .  A
C2145      H2147   1.082       .  S
N2148      N2149   1.318       .  A
N2148      C2152   1.353       .  A
N2149      C2150   1.335       .  A
C2150      C2151   1.377       .  A
C2150      H2153   1.081       .  S
C2151      C2152   1.391       .  A
C2151      C2175   1.471   1_556  S
C2152      H2154   1.081       .  S
N2155      N2156   1.322       .  A
N2155      C2159   1.342       .  A
N2155     Cu2163   2.047       .  S
N2156      C2157   1.347       .  A
N2156     Cu2162   2.096       .  S
C2157      C2158   1.389       .  A
C2157      H2160   1.081       .  S
C2158      C2159   1.375       .  A
C2159      H2161   1.082       .  S
Cu2162     N2165   2.096       .  S
Cu2163     N2173   2.048       .  S
Cu2164     N2166   2.078       .  S
N2165      N2166   1.323   1_565  A
N2165      C2169   1.353   1_565  A
N2166      C2167   1.336       .  A
C2167      C2168   1.389       .  A
C2168      C2169   1.393       .  A
C2169      H2171   1.081   1_545  S
N2172      C2176   1.352       .  A
C2174      C2175   1.380       .  A
C2174      H2177   1.081       .  S
C2175      C2176   1.388       .  A
C2176      H2178   1.081       .  S
C2179      C2180   1.423       .  A
C2179      C2184   1.422       .  A
C2179      C2245   1.523       .  S
C2180      C2181   1.407       .  A
C2180      H2185   1.081       .  S
C2181      C2182   1.393       .  A
C2182      C2183   1.394       .  A
C2182      H2186   1.074       .  S
C2183      C2184   1.407       .  A
C2183      C2234   1.494       .  S
C2184      H2187   1.071       .  S
C2188      C2189   1.423       .  A
C2188      C2193   1.424       .  A
C2188      C2248   1.525       .  S
C2189      C2190   1.408       .  A
C2189      H2194   1.071       .  S
C2190      C2191   1.396       .  A
C2191      C2192   1.394       .  A
C2191      H2195   1.075       .  S
C2192      C2193   1.406       .  A
C2192      C2210   1.490       .  S
C2193      H2196   1.081       .  S
N2197      N2198   1.322       .  A
N2197      C2201   1.342       .  A
N2197     Cu2205   2.051       .  S
N2198      C2199   1.347       .  A
N2198     Cu2204   2.092       .  S
C2199      C2200   1.388       .  A
C2199      H2202   1.082       .  S
C2200      C2201   1.377       .  A
C2201      H2203   1.082       .  S
Cu2204     N2207   2.093       .  S
Cu2205     N2215   2.051       .  S
Cu2206     N2208   2.088       .  S
Cu2206     N2214   2.084       .  S
N2207      N2208   1.325       .  A
N2207      C2211   1.353       .  A
N2208      C2209   1.340       .  A
C2209      C2210   1.388       .  A
C2209      H2212   1.081       .  S
C2210      C2211   1.389       .  A
C2211      H2213   1.082       .  S
N2214      N2215   1.319       .  A
N2214      C2218   1.352       .  A
N2215      C2216   1.337       .  A
C2216      C2217   1.380       .  A
C2216      H2219   1.081       .  S
C2217      C2218   1.389       .  A
C2217      C2241   1.473   1_554  S
C2218      H2220   1.082       .  S
N2221      N2222   1.321       .  A
N2221      C2225   1.340       .  A
N2221     Cu2229   2.040       .  S
N2222      C2223   1.346       .  A
N2222     Cu2228   2.086       .  S
C2223      C2224   1.388       .  A
C2223      H2226   1.082       .  S
C2224      C2225   1.374       .  A
C2225      H2227   1.082       .  S
Cu2228     N2231   2.086       .  S
Cu2229     N2239   2.041       .  S
Cu2230     N2232   2.089       .  S
Cu2230     N2238   2.087       .  S
N2231      N2232   1.324       .  A
N2231      C2235   1.351       .  A
N2232      C2233   1.338       .  A
C2233      C2234   1.391       .  A
C2233      H2236   1.079       .  S
C2234      C2235   1.390       .  A
C2235      H2237   1.081       .  S
N2238      N2239   1.318       .  A
C2240      C2241   1.378       .  A
C2240      H2243   1.081       .  S
C2241      C2242   1.391       .  A
C2242      H2244   1.081       .  S
C2245      C2246   1.409       .  A
C2246      C2247   1.406       .  A
C2246      H2255   1.082       .  S
C2247      C2248   1.427       .  A
C2249      C2250   1.404       .  A
C2249      H2256   1.082       .  S
C2250      S2252   1.799   1_545  S
S2251      H2254   1.384       .  S
S2252      H2253   1.384       .  S
C2257      C2262   1.427       .  A
C2258      C2259   1.399   1_556  A
C2258      H2267   1.082       .  S
C2259      S2263   1.800       .  S
C2260      C2261   1.407       .  A
C2261      C2262   1.400   1_554  A
C2261      H2268   1.082       .  S
C2262      S2264   1.802       .  S
S2263      H2266   1.379       .  S
S2264      H2265   1.377       .  S
