geometry optimzed in LAMMPS
_audit_creation_date              2020-11-30 
_audit_creation_method            'lammps2cif' 
_symmetry_space_group_name_H-M    'P1' 
_symmetry_Int_Tables_number       1 
_symmetry_cell_setting            triclinic 
loop_ 
_symmetry_equiv_pos_as_xyz 
  x,y,z 
_cell_length_a                    37.64882262 
_cell_length_b                    20.836654812195842 
_cell_length_c                    21.652960431478245 
_cell_angle_alpha                 90.2835670775625 
_cell_angle_beta                  114.33925943214642 
_cell_angle_gamma                 91.03334861222628 
loop_ 
_atom_site_label 
_atom_site_type_symbol 
_atom_site_fract_x 
_atom_site_fract_y 
_atom_site_fract_z 
_atom_site_charge 
C1          C  0.30194262  0.20715103  0.47340529    -0.02100
C2          C  0.47646823  0.19390064  0.09600625    -0.02100
O3          O  0.27508722  0.47414805  0.46563706    -0.71400
O4          O  0.30833004  0.06384572  0.13388520    -0.71600
O5          O  0.27704853  0.44871936  0.09061836    -0.71500
O6          O  0.30768024  0.09335789  0.01232841    -0.71500
O7          O  0.25040437  0.13361893  0.47753946    -0.71500
O8          O  0.22026378  0.48931180  0.05535858    -0.71500
O9          O  0.25251831  0.10843455  0.10201522    -0.71400
O10         O  0.21888644  0.01780935  0.43349157    -0.71600
V11         V  0.29105617  0.02115636  0.04939699     1.35200
V12         V  0.23655528  0.06113704  0.01826304     1.35200
C13         C  0.24093402  0.48032041  0.42011608     0.77800
C14         C  0.28671001  0.10203002  0.14737362     0.77900
C15         C  0.24224398  0.44327008  0.08503934     0.77700
C16         C  0.28524304  0.13971966  0.48363208     0.77700
O17         O  0.46783817  0.06405290  0.44161410    -0.71400
O18         O  0.00500035  0.45649105  0.09894799    -0.71600
O19         O  0.47502875  0.07607103  0.07394318    -0.71500
O20         O  0.99891955  0.44621784  0.46926352    -0.71500
O21         O  0.05799953  0.48075407  0.01926328    -0.71500
O22         O  0.02631390  0.12894759  0.08261254    -0.71500
O23         O  0.05726216  0.01646560  0.13722046    -0.71400
O24         O  0.02690683  0.09492912  0.46406233    -0.71600
V25         V  0.48721527  0.01180566  0.02123236     1.35200
V26         V  0.04148649  0.05423784  0.05039641     1.35200
C27         C  0.49117723  0.09520521  0.42317661     0.77800
C28         C  0.03760522  0.47041874  0.14700005     0.77900
C29         C  0.49395391  0.12900827  0.08741867     0.77700
C30         C  0.03461298  0.43815435  0.48177338     0.77700
C31         C  0.22509829  0.37644666  0.09625306    -0.02100
C32         C  0.05024943  0.37298149  0.46747409    -0.02100
C33         C  0.05109534  0.44327949  0.21910594    -0.02100
C34         C  0.22739918  0.45254230  0.34762557    -0.02100
O35         O  0.25356997  0.22382440  0.35517834    -0.71400
O36         O  0.21764385  0.31602210  0.18728757    -0.71600
O37         O  0.25211211  0.20068278  0.23150457    -0.71500
O38         O  0.22002170  0.33912812  0.31058168    -0.71500
O39         O  0.27681190  0.38272706  0.33746393    -0.71500
O40         O  0.30899346  0.24383220  0.25885676    -0.71500
O41         O  0.27483772  0.35901479  0.21372626    -0.71400
O42         O  0.31075807  0.26741173  0.38286396    -0.71600
V43         V  0.23700435  0.27050686  0.27127455     1.35200
V44         V  0.29177139  0.31256389  0.29813825     1.35200
C45         C  0.28854602  0.23021036  0.39865751     0.77800
C46         C  0.23954080  0.35321903  0.17102815     0.77900
C47         C  0.28623946  0.19604522  0.23370605     0.76500
C48         C  0.24265524  0.38723527  0.33490149     0.77700
O49         O  0.05818232  0.33083697  0.25683020    -0.71400
O50         O  0.02750708  0.19371336  0.34159503    -0.71600
O51         O  0.02482837  0.21161137  0.21556301    -0.71500
O52         O  0.05932189  0.31091084  0.37975449    -0.71500
O53         O  0.00315035  0.35467545  0.34798581    -0.71500
O54         O  0.46764812  0.24927356  0.18854395    -0.71500
O55         O  0.47073948  0.23384858  0.31298998    -0.71400
O56         O  0.00016055  0.36766809  0.22140209    -0.71600
V57         V  0.04137983  0.26238982  0.29784626     1.35200
V58         V  0.48653617  0.30068552  0.26828755     1.35200
C59         C  0.03513771  0.37591654  0.22850540     0.77800
C60         C  0.49333385  0.18733629  0.33859075     0.77900
C61         C  0.48997453  0.21585826  0.17158686     0.77700
C62         C  0.03727853  0.34850572  0.39344108     0.77700
C63         C  0.30120907  0.13044268  0.21991382    -0.02100
C64         C  0.47740730  0.12030208  0.34900140    -0.02100
C65         C  0.37002035  0.13701492  0.21260426    -0.20900
C66         C  0.34758223  0.13511161  0.25178920    -0.09000
C67         C  0.36936566  0.14636623  0.32143721     0.29900
C68         C  0.41012224  0.14131679  0.35144216    -0.20900
C69         C  0.43159835  0.12546134  0.31357914    -0.09000
C70         C  0.41089507  0.13225026  0.24253647     0.29900
F71         F  0.43003563  0.13476773  0.20150600    -0.19500
H72         H  0.35653832  0.14346184  0.15838354     0.18200
H73         H  0.42512625  0.15268821  0.40438409     0.18300
F74         F  0.35089959  0.16384578  0.36016495    -0.19500
C75         C  0.22390445  0.03988727  0.26251159    -0.20900
C76         C  0.24623163  0.00214602  0.31680564    -0.09000
C77         C  0.28784629  0.50931791  0.34165867     0.29900
C78         C  0.30513474  0.04523834  0.30766419    -0.20900
C79         C  0.28268342  0.08161059  0.25206109    -0.09000
C80         C  0.24106373  0.07482676  0.22777139     0.29900
F81         F  0.21575133  0.10464027  0.17176832    -0.19500
H82         H  0.19275032  0.04283297  0.24528878     0.18200
H83         H  0.33638466  0.04351048  0.32611224     0.18300
F84         F  0.31300906  0.47941793  0.39773598    -0.19500
C85         C  0.99197773  0.99380592  0.22924449    -0.20900
C86         C  0.03324794  0.99191869  0.25276243    -0.09000
C87         C  0.05493631  0.03446023  0.30601894     0.29900
C88         C  0.03668406  0.06843767  0.33976669    -0.20900
C89         C  0.99538664  0.07038673  0.31640540    -0.09000
C90         C  0.47375297  0.02723479  0.26361150     0.29900
F91         F  0.43556047  0.01335587  0.24682394    -0.19500
H92         H  0.47307567  0.96670827  0.18473051     0.18200
H93         H  0.05581244  0.09670022  0.38303630     0.18300
F94         F  0.09312082  0.54846192  0.32300618    -0.19500
C95         C  0.15916041  0.43575255  0.35284205    -0.20900
C96         C  0.18129410  0.44585653  0.31401892    -0.09000
C97         C  0.16018663  0.43735711  0.24342418     0.29900
C98         C  0.11925993  0.43702897  0.21324038    -0.20900
C99         C  0.09703664  0.44006392  0.25240788    -0.09000
C100        C  0.11823853  0.43159026  0.32279508     0.29900
F101        F  0.09931197  0.42230624  0.36342949    -0.19500
H102        H  0.17303270  0.43003269  0.40704255     0.18200
H103        H  0.10530227  0.43307999  0.15866709     0.18300
F104        F  0.17935208  0.42864209  0.20338923    -0.19500
C105        C  0.15819910  0.31637288  0.04109230    -0.20900
C106        C  0.17964990  0.37480098  0.06387249    -0.09000
C107        C  0.15732108  0.43025650  0.05586569     0.29900
C108        C  0.11855830  0.42944267  0.01160195    -0.20900
C109        C  0.09600075  0.37247179  0.99885602    -0.09000
C110        C  0.11725695  0.31470049  0.01214977     0.29900
F111        F  0.09865255  0.25649274  0.99725060    -0.19500
H112        H  0.17269765  0.27124395  0.04733244     0.18200
H113        H  0.10690700  0.47503228  0.99033753     0.18300
F114        F  0.17099601  0.48453365  0.09389716    -0.19500
C115        C  0.99238048  0.30868307  0.46869635    -0.20900
C116        C  0.03249207  0.32517358  0.00168138    -0.09000
C117        C  0.05242059  0.30399436  0.06860215     0.29900
C118        C  0.03420014  0.26241731  0.09680284    -0.20900
C119        C  0.99419829  0.24431097  0.06323499    -0.09000
C120        C  0.97366738  0.26908154  0.99764126     0.29900
F121        F  0.43552099  0.25561454  0.45910058    -0.19500
H122        H  0.97417506  0.32806553  0.42011544     0.18200
H123        H  0.05276461  0.24337788  0.14518955     0.18300
F124        F  0.08932244  0.32369616  0.10866621    -0.19500
C125        C  0.28223827  0.23843294  0.06892210    -0.20900
C126        C  0.28731093  0.25615174  0.01117797    -0.09000
C127        C  0.27203088  0.31494383  0.98324293     0.29900
C128        C  0.24448474  0.34472502  0.00009168    -0.20900
C129        C  0.23924824  0.32697837  0.05779277    -0.09000
C130        C  0.25452035  0.26797349  0.08551278     0.29900
F131        F  0.23572735  0.23278705  0.11473618    -0.19500
H132        H  0.29683856  0.19749115  0.09572249     0.18200
H133        H  0.23063280  0.38633293  0.97404027     0.18300
F134        F  0.29107416  0.34996839  0.45444842    -0.19500
C135        C  0.36480116  0.15324140  0.49113147    -0.20900
C136        C  0.34696833  0.20593523  0.00562479    -0.09000
C137        C  0.37157746  0.25784690  0.04131516     0.29900
C138        C  0.41198858  0.25335459  0.06504638    -0.20900
C139        C  0.43043667  0.19572788  0.06029475    -0.09000
C140        C  0.40482796  0.14719270  0.01737954     0.29900
F141        F  0.41566398  0.09697259  0.99040200    -0.19500
H142        H  0.34738779  0.11584642  0.45637697     0.18200
H143        H  0.42910602  0.29660923  0.08658556     0.18300
F144        F  0.35745909  0.31445045  0.05123807    -0.19500
C145        C  0.30201627  0.20718113  0.97354674    -0.02100
C146        C  0.47643188  0.19391540  0.59597443    -0.02100
O147        O  0.27519383  0.47428734  0.96567602    -0.71400
O148        O  0.30832550  0.06393782  0.63372745    -0.71600
O149        O  0.27704152  0.44873647  0.59066903    -0.71500
O150        O  0.30757595  0.09327422  0.51206458    -0.71500
O151        O  0.25047200  0.13361101  0.97755455    -0.71500
O152        O  0.22022542  0.48922116  0.55528155    -0.71500
O153        O  0.25246717  0.10834020  0.60199632    -0.71400
O154        O  0.21894710  0.01778540  0.93357256    -0.71600
V155        V  0.29099925  0.02112840  0.54929593     1.35200
V156        V  0.23649927  0.06109742  0.51821387     1.35200
C157        C  0.24102368  0.48037765  0.92017518     0.77800
C158        C  0.28668789  0.10203030  0.64728681     0.77900
C159        C  0.24223315  0.44323454  0.58505918     0.77700
C160        C  0.28533234  0.13975494  0.98378701     0.77700
O161        O  0.46782089  0.06408669  0.94155096    -0.71400
O162        O  0.00506514  0.45649815  0.59902880    -0.71600
O163        O  0.47503884  0.07606183  0.57398477    -0.71500
O164        O  0.99888202  0.44623296  0.96919192    -0.71500
O165        O  0.05803644  0.48074446  0.51932384    -0.71500
O166        O  0.02630981  0.12896491  0.58262550    -0.71500
O167        O  0.05731063  0.01651480  0.63728362    -0.71400
O168        O  0.02689074  0.09496107  0.96402606    -0.71600
V169        V  0.48724886  0.01179068  0.52130053     1.35200
V170        V  0.04151179  0.05424674  0.55044180     1.35200
C171        C  0.49116185  0.09525158  0.92312669     0.77800
C172        C  0.03766826  0.47045556  0.64707349     0.77900
C173        C  0.49394522  0.12901731  0.58742895     0.77700
C174        C  0.03457748  0.43817167  0.98171290     0.77700
C175        C  0.22511354  0.37640114  0.59634471    -0.02100
C176        C  0.05022543  0.37301668  0.96743180    -0.02100
C177        C  0.05115694  0.44334127  0.71918253    -0.02100
C178        C  0.22747447  0.45251567  0.84770835    -0.02100
O179        O  0.25363003  0.22380373  0.85532560    -0.71400
O180        O  0.21768136  0.31595477  0.68739922    -0.71600
O181        O  0.25213867  0.20060927  0.73162081    -0.71500
O182        O  0.22008143  0.33908759  0.81070984    -0.71500
O183        O  0.27688079  0.38264195  0.83760024    -0.71500
O184        O  0.30901173  0.24376075  0.75889155    -0.71500
O185        O  0.27486822  0.35896557  0.71381970    -0.71400
O186        O  0.31082604  0.26733864  0.88294682    -0.71600
V187        V  0.23705065  0.27045279  0.77139997     1.35200
V188        V  0.29181799  0.31249268  0.79822504     1.35200
C189        C  0.28861142  0.23018816  0.89878408     0.77800
C190        C  0.23956993  0.35316520  0.67112920     0.77900
C191        C  0.28625022  0.19597795  0.73374824     0.76500
C192        C  0.24272558  0.38717913  0.83503699     0.77700
O193        O  0.05815849  0.33084835  0.75673140    -0.71400
O194        O  0.02748703  0.19385180  0.84164493    -0.71600
O195        O  0.02476393  0.21160042  0.71556181    -0.71500
O196        O  0.05930802  0.31104838  0.87966694    -0.71500
O197        O  0.00310592  0.35468883  0.84798725    -0.71500
O198        O  0.46762577  0.24949157  0.68841756    -0.71500
O199        O  0.47068179  0.23390456  0.81283816    -0.71400
O200        O  0.00018072  0.36783895  0.72148774    -0.71600
V201        V  0.04134593  0.26246218  0.79780442     1.35200
V202        V  0.48650888  0.30079610  0.76823792     1.35200
C203        C  0.03515263  0.37600533  0.72852839     0.77800
C204        C  0.49329695  0.18743543  0.83854161     0.77900
C205        C  0.48992665  0.21593228  0.67153696     0.77700
C206        C  0.03724848  0.34856689  0.89340003     0.77700
C207        C  0.30119829  0.13038948  0.71985152    -0.02100
C208        C  0.47739096  0.12038681  0.84894780    -0.02100
C209        C  0.37000471  0.13710739  0.71254423    -0.20900
C210        C  0.34756570  0.13506221  0.75171999    -0.09000
C211        C  0.36933373  0.14623064  0.82137597     0.29900
C212        C  0.41008980  0.14126217  0.85137341    -0.20900
C213        C  0.43157953  0.12552167  0.81350888    -0.09000
C214        C  0.41088180  0.13240559  0.74248009     0.29900
F215        F  0.43003019  0.13507509  0.70146705    -0.19500
H216        H  0.35652433  0.14361758  0.65834363     0.18200
H217        H  0.42507980  0.15262740  0.90430306     0.18300
F218        F  0.35084614  0.16353879  0.86012427    -0.19500
C219        C  0.22394310  0.03983155  0.76255369    -0.20900
C220        C  0.24629051  0.00206875  0.81681620    -0.09000
C221        C  0.28790371  0.50919411  0.84157813     0.29900
C222        C  0.30516214  0.04505398  0.80749453    -0.20900
C223        C  0.28269115  0.08150544  0.75197312    -0.09000
C224        C  0.24107433  0.07475951  0.72776259     0.29900
F225        F  0.21574271  0.10462570  0.67181882    -0.19500
H226        H  0.19279239  0.04282836  0.74541460     0.18200
H227        H  0.33640818  0.04325533  0.82583760     0.18300
F228        F  0.31308734  0.47933262  0.89766458    -0.19500
C229        C  0.99203696  0.99398879  0.72916995    -0.20900
C230        C  0.03331175  0.99201569  0.75281452    -0.09000
C231        C  0.05498548  0.03450696  0.80613192     0.29900
C232        C  0.03669411  0.06854909  0.83977157    -0.20900
C233        C  0.99539125  0.07051998  0.81633409    -0.09000
C234        C  0.47377627  0.02743593  0.76345702     0.29900
F235        F  0.43556040  0.01362194  0.74649946    -0.19500
H236        H  0.47315353  0.96691801  0.68462048     0.18200
H237        H  0.05580199  0.09680739  0.88304827     0.18300
F238        F  0.09320246  0.54838719  0.82330359    -0.19500
C239        C  0.15923360  0.43570819  0.85293772    -0.20900
C240        C  0.18136593  0.44583114  0.81411256    -0.09000
C241        C  0.16025261  0.43733801  0.74350870     0.29900
C242        C  0.11932293  0.43704186  0.71331627    -0.20900
C243        C  0.09709984  0.44007622  0.75248771    -0.09000
C244        C  0.11830524  0.43155644  0.82287717     0.29900
F245        F  0.09937393  0.42224453  0.86349403    -0.19500
H246        H  0.17311441  0.42996737  0.90714962     0.18200
H247        H  0.10536050  0.43310570  0.65872702     0.18300
F248        F  0.17941775  0.42861402  0.70347694    -0.19500
C249        C  0.15822111  0.31629859  0.54124084    -0.20900
C250        C  0.17966681  0.37473702  0.56399295    -0.09000
C251        C  0.15733518  0.43019691  0.55595108     0.29900
C252        C  0.11858117  0.42937838  0.51164910    -0.20900
C253        C  0.09602197  0.37241435  0.49891596    -0.09000
C254        C  0.11727687  0.31463407  0.51225955     0.29900
F255        F  0.09867183  0.25642732  0.49738395    -0.19500
H256        H  0.17272685  0.27116014  0.54752952     0.18200
H257        H  0.10693085  0.47496204  0.49035526     0.18300
F258        F  0.17100851  0.48449031  0.59395452    -0.19500
C259        C  0.99237162  0.30868703  0.96869387    -0.20900
C260        C  0.03250232  0.32515051  0.50170914    -0.09000
C261        C  0.05241425  0.30397144  0.56863269     0.29900
C262        C  0.03417538  0.26241000  0.59681044    -0.20900
C263        C  0.99417254  0.24431519  0.56321429    -0.09000
C264        C  0.97365725  0.26909519  0.49762398     0.29900
F265        F  0.43553332  0.25556747  0.95913026    -0.19500
H266        H  0.97415025  0.32806322  0.92011696     0.18200
H267        H  0.05272539  0.24336900  0.64520281     0.18300
F268        F  0.08931720  0.32365421  0.60872071    -0.19500
C269        C  0.28223534  0.23841707  0.56887269    -0.20900
C270        C  0.28723915  0.25611589  0.51106097    -0.09000
C271        C  0.27190149  0.31485545  0.48312112     0.29900
C272        C  0.24440385  0.34461164  0.50010405    -0.20900
C273        C  0.23925705  0.32691938  0.55788353    -0.09000
C274        C  0.25456007  0.26795221  0.58558472     0.29900
F275        F  0.23579850  0.23274527  0.61484689    -0.19500
H276        H  0.29684457  0.19748508  0.59563368     0.18200
H277        H  0.23050555  0.38616527  0.47405197     0.18300
F278        F  0.29127575  0.35002715  0.95467441    -0.19500
C279        C  0.36484502  0.15330016  0.99118404    -0.20900
C280        C  0.34690291  0.20589811  0.50549102    -0.09000
C281        C  0.37150228  0.25786420  0.54106598     0.29900
C282        C  0.41192310  0.25336690  0.56489118    -0.20900
C283        C  0.43039099  0.19572594  0.56023295    -0.09000
C284        C  0.40479253  0.14715484  0.51735849     0.29900
F285        F  0.41565315  0.09692055  0.49043910    -0.19500
H286        H  0.34741518  0.11590835  0.95644459     0.18200
H287        H  0.42903015  0.29664883  0.58636981     0.18300
F288        F  0.35736002  0.31453771  0.55073705    -0.19500
C289        C  0.30194225  0.70715272  0.47340442    -0.02100
C290        C  0.47646822  0.69390036  0.09600598    -0.02100
O291        O  0.27508714  0.97414795  0.46563718    -0.71400
O292        O  0.30833004  0.56384637  0.13388495    -0.71600
O293        O  0.27704861  0.94871920  0.09061823    -0.71500
O294        O  0.30768028  0.59335803  0.01232850    -0.71500
O295        O  0.25040396  0.63361876  0.47753944    -0.71500
O296        O  0.22026390  0.98931173  0.05535862    -0.71500
O297        O  0.25251812  0.60843459  0.10201515    -0.71400
O298        O  0.21888655  0.51780946  0.43349149    -0.71600
V299        V  0.29105621  0.52115657  0.04939708     1.35200
V300        V  0.23655523  0.56113700  0.01826294     1.35200
C301        C  0.24093376  0.98032115  0.42011553     0.77800
C302        C  0.28670998  0.60203041  0.14737347     0.77900
C303        C  0.24224403  0.94327011  0.08503927     0.77700
C304        C  0.28524253  0.63971932  0.48363184     0.77700
O305        O  0.46783833  0.56405218  0.44161396    -0.71400
O306        O  0.00500022  0.95649085  0.09894816    -0.71600
O307        O  0.47502889  0.57607121  0.07394325    -0.71500
O308        O  0.99891931  0.94621782  0.46926339    -0.71500
O309        O  0.05800023  0.98075446  0.01926303    -0.71500
O310        O  0.02631405  0.62894772  0.08261236    -0.71500
O311        O  0.05726217  0.51646601  0.13722059    -0.71400
O312        O  0.02690679  0.59492918  0.46406236    -0.71600
V313        V  0.48721512  0.51180571  0.02123231     1.35200
V314        V  0.04148640  0.55423792  0.05039628     1.35200
C315        C  0.49117736  0.59520461  0.42317640     0.77800
C316        C  0.03760475  0.97041810  0.14699970     0.77900
C317        C  0.49395423  0.62900880  0.08741875     0.77700
C318        C  0.03461276  0.93815432  0.48177332     0.77700
C319        C  0.22509869  0.87644596  0.09625350    -0.02100
C320        C  0.05024947  0.87298213  0.46747413    -0.02100
C321        C  0.05109526  0.94327948  0.21910579    -0.02100
C322        C  0.22739952  0.95254199  0.34762588    -0.02100
O323        O  0.25356975  0.72382419  0.35517799    -0.71400
O324        O  0.21764393  0.81602214  0.18728761    -0.71600
O325        O  0.25211231  0.70068278  0.23150453    -0.71500
O326        O  0.22002184  0.83912780  0.31058155    -0.71500
O327        O  0.27681198  0.88272693  0.33746401    -0.71500
O328        O  0.30899370  0.74383222  0.25885676    -0.71500
O329        O  0.27483783  0.85901476  0.21372641    -0.71400
O330        O  0.31075791  0.76741143  0.38286400    -0.71600
V331        V  0.23700448  0.77050682  0.27127445     1.35200
V332        V  0.29177156  0.81256383  0.29813840     1.35200
C333        C  0.28854558  0.73020981  0.39865705     0.77800
C334        C  0.23954100  0.85321923  0.17102838     0.77900
C335        C  0.28623997  0.69604566  0.23370615     0.76500
C336        C  0.24265521  0.88723525  0.33490140     0.77700
O337        O  0.05818205  0.83083715  0.25683000    -0.71400
O338        O  0.02750704  0.69371331  0.34159496    -0.71600
O339        O  0.02482836  0.71161147  0.21556305    -0.71500
O340        O  0.05932195  0.81091081  0.37975456    -0.71500
O341        O  0.00315048  0.85467580  0.34798549    -0.71500
O342        O  0.46764808  0.74927336  0.18854407    -0.71500
O343        O  0.47073939  0.73384838  0.31298999    -0.71400
O344        O  0.00016030  0.86766853  0.22140186    -0.71600
V345        V  0.04137970  0.76238997  0.29784612     1.35200
V346        V  0.48653600  0.80068544  0.26828752     1.35200
C347        C  0.03513705  0.87591696  0.22850502     0.77800
C348        C  0.49333388  0.68733601  0.33859061     0.77900
C349        C  0.48997478  0.71585839  0.17158710     0.77700
C350        C  0.03727869  0.84850576  0.39344107     0.77700
C351        C  0.30120940  0.63044318  0.21991353    -0.02100
C352        C  0.47740740  0.62030143  0.34900107    -0.02100
C353        C  0.37002102  0.63701505  0.21260453    -0.20900
C354        C  0.34758294  0.63511231  0.25178950    -0.09000
C355        C  0.36936623  0.64636650  0.32143704     0.29900
C356        C  0.41012260  0.64131591  0.35144083    -0.20900
C357        C  0.43159861  0.62546063  0.31357841    -0.09000
C358        C  0.41089558  0.63225008  0.24253663     0.29900
F359        F  0.43003587  0.63476764  0.20150563    -0.19500
H360        H  0.35653973  0.64346120  0.15838462     0.18200
H361        H  0.42512660  0.65268629  0.40438077     0.18300
F362        F  0.35090022  0.66384586  0.36016541    -0.19500
C363        C  0.22390819  0.53988738  0.26251341    -0.20900
C364        C  0.24623252  0.50214606  0.31680569    -0.09000
C365        C  0.28784665  0.00931782  0.34165960     0.29900
C366        C  0.30513515  0.54523908  0.30766373    -0.20900
C367        C  0.28268288  0.58161086  0.25206020    -0.09000
C368        C  0.24106459  0.57482665  0.22777179     0.29900
F369        F  0.21575145  0.60464029  0.17176855    -0.19500
H370        H  0.19275953  0.54283487  0.24529493     0.18200
H371        H  0.33638471  0.54351183  0.32611123     0.18300
F372        F  0.31300840  0.97941757  0.39773598    -0.19500
C373        C  0.99197766  0.49380437  0.22924313    -0.20900
C374        C  0.03324831  0.49191826  0.25276245    -0.09000
C375        C  0.05493651  0.53446062  0.30601925     0.29900
C376        C  0.03668399  0.56843773  0.33976657    -0.20900
C377        C  0.99538660  0.57038660  0.31640491    -0.09000
C378        C  0.47375295  0.52723400  0.26361054     0.29900
F379        F  0.43556065  0.51335502  0.24682307    -0.19500
H380        H  0.47307523  0.46670473  0.18472664     0.18200
H381        H  0.05581243  0.59670105  0.38303700     0.18300
F382        F  0.09312087  0.04846172  0.32300612    -0.19500
C383        C  0.15916089  0.93575195  0.35284241    -0.20900
C384        C  0.18129409  0.94585608  0.31401889    -0.09000
C385        C  0.16018676  0.93735669  0.24342411     0.29900
C386        C  0.11926014  0.93702850  0.21324003    -0.20900
C387        C  0.09703671  0.94006363  0.25240774    -0.09000
C388        C  0.11823896  0.93159019  0.32279528     0.29900
F389        F  0.09931228  0.92230616  0.36342944    -0.19500
H390        H  0.17303365  0.93003091  0.40704259     0.18200
H391        H  0.10530263  0.93307892  0.15866661     0.18300
F392        F  0.17935242  0.92864175  0.20338928    -0.19500
C393        C  0.15819854  0.81637612  0.04109218    -0.20900
C394        C  0.17964989  0.87480207  0.06387265    -0.09000
C395        C  0.15732171  0.93025544  0.05586622     0.29900
C396        C  0.11855931  0.92944112  0.01160255    -0.20900
C397        C  0.09600154  0.87247104  0.99885631    -0.09000
C398        C  0.11725707  0.81470167  0.01215001     0.29900
F399        F  0.09865293  0.75649257  0.99725085    -0.19500
H400        H  0.17269563  0.77125269  0.04733111     0.18200
H401        H  0.10690953  0.97502710  0.99033766     0.18300
F402        F  0.17099619  0.98453360  0.09389740    -0.19500
C403        C  0.99238176  0.80868269  0.46869828    -0.20900
C404        C  0.03249253  0.82517380  0.00168152    -0.09000
C405        C  0.05242096  0.80399443  0.06860252     0.29900
C406        C  0.03420031  0.76241773  0.09680253    -0.20900
C407        C  0.99419865  0.74431133  0.06323518    -0.09000
C408        C  0.97366758  0.76908207  0.99764100     0.29900
F409        F  0.43552113  0.75561372  0.45910097    -0.19500
H410        H  0.97417717  0.82806502  0.42011872     0.18200
H411        H  0.05276478  0.74337841  0.14518866     0.18300
F412        F  0.08932263  0.82369631  0.10866626    -0.19500
C413        C  0.28223951  0.73843081  0.06892295    -0.20900
C414        C  0.28731130  0.75615092  0.01117807    -0.09000
C415        C  0.27203060  0.81494483  0.98324232     0.29900
C416        C  0.24448426  0.84472743  0.00009033    -0.20900
C417        C  0.23924847  0.82697916  0.05779242    -0.09000
C418        C  0.25452131  0.76797225  0.08551332     0.29900
F419        F  0.23572804  0.73278669  0.11473649    -0.19500
H420        H  0.29684167  0.69748753  0.09572506     0.18200
H421        H  0.23063210  0.88633869  0.97403800     0.18300
F422        F  0.29107401  0.84996899  0.45444830    -0.19500
C423        C  0.36479884  0.65323753  0.49112772    -0.20900
C424        C  0.34696808  0.70593469  0.00562417    -0.09000
C425        C  0.37157797  0.75784871  0.04131583     0.29900
C426        C  0.41199100  0.75336013  0.06504890    -0.20900
C427        C  0.43043740  0.69572898  0.06029554    -0.09000
C428        C  0.40482770  0.64719232  0.01737889     0.29900
F429        F  0.41566417  0.59697357  0.99040295    -0.19500
H430        H  0.34738174  0.61583603  0.45636644     0.18200
H431        H  0.42911229  0.79662265  0.08659190     0.18300
F432        F  0.35745934  0.81445137  0.05123861    -0.19500
C433        C  0.30201662  0.70718159  0.97354660    -0.02100
C434        C  0.47643140  0.69391507  0.59597387    -0.02100
O435        O  0.27519357  0.97428715  0.96567585    -0.71400
O436        O  0.30832551  0.56393742  0.63372770    -0.71600
O437        O  0.27704153  0.94873667  0.59066930    -0.71500
O438        O  0.30757566  0.59327437  0.51206480    -0.71500
O439        O  0.25047202  0.63361102  0.97755444    -0.71500
O440        O  0.22022541  0.98922138  0.55528168    -0.71500
O441        O  0.25246711  0.60833995  0.60199632    -0.71400
O442        O  0.21894721  0.51778518  0.93357252    -0.71600
V443        V  0.29099930  0.52112829  0.54929596     1.35200
V444        V  0.23649927  0.56109726  0.51821391     1.35200
C445        C  0.24102317  0.98037823  0.92017469     0.77800
C446        C  0.28668778  0.60202767  0.64728813     0.77900
C447        C  0.24223292  0.94323530  0.58505952     0.77700
C448        C  0.28533255  0.63975504  0.98378694     0.77700
O449        O  0.46782085  0.56408691  0.94155093    -0.71400
O450        O  0.00506521  0.95649853  0.59902874    -0.71600
O451        O  0.47503877  0.57606173  0.57398452    -0.71500
O452        O  0.99888257  0.94623295  0.96919234    -0.71500
O453        O  0.05803642  0.98074433  0.51932353    -0.71500
O454        O  0.02630965  0.62896487  0.58262549    -0.71500
O455        O  0.05731043  0.51651473  0.63728357    -0.71400
O456        O  0.02689060  0.59496103  0.96402588    -0.71600
V457        V  0.48724892  0.51179038  0.52130055     1.35200
V458        V  0.04151165  0.55424670  0.55044186     1.35200
C459        C  0.49116154  0.59525147  0.92312647     0.77800
C460        C  0.03766841  0.97045584  0.64707348     0.77900
C461        C  0.49394505  0.62901718  0.58742882     0.77700
C462        C  0.03457809  0.93817195  0.98171309     0.77700
C463        C  0.22511356  0.87640035  0.59634529    -0.02100
C464        C  0.05022590  0.87301709  0.96743198    -0.02100
C465        C  0.05115679  0.94334139  0.71918236    -0.02100
C466        C  0.22747460  0.95251584  0.84770838    -0.02100
O467        O  0.25363023  0.72380384  0.85532562    -0.71400
O468        O  0.21768123  0.81595470  0.68739925    -0.71600
O469        O  0.25213866  0.70060930  0.73162069    -0.71500
O470        O  0.22008151  0.83908752  0.81070990    -0.71500
O471        O  0.27688073  0.88264219  0.83760011    -0.71500
O472        O  0.30901176  0.74376068  0.75889145    -0.71500
O473        O  0.27486807  0.85896547  0.71381948    -0.71400
O474        O  0.31082622  0.76733881  0.88294668    -0.71600
V475        V  0.23705079  0.77045285  0.77140003     1.35200
V476        V  0.29181810  0.81249282  0.79822493     1.35200
C477        C  0.28861185  0.73018834  0.89878408     0.77800
C478        C  0.23956970  0.85316534  0.67112923     0.77900
C479        C  0.28625057  0.69597815  0.73374823     0.76500
C480        C  0.24272550  0.88717943  0.83503688     0.77700
O481        O  0.05815844  0.83084846  0.75673141    -0.71400
O482        O  0.02748710  0.69385150  0.84164509    -0.71600
O483        O  0.02476388  0.71160035  0.71556228    -0.71500
O484        O  0.05930802  0.81104837  0.87966691    -0.71500
O485        O  0.00310606  0.85468935  0.84798695    -0.71500
O486        O  0.46762559  0.74949155  0.68841753    -0.71500
O487        O  0.47068191  0.73390425  0.81283828    -0.71400
O488        O  0.00018063  0.86783896  0.72148750    -0.71600
V489        V  0.04134594  0.76246221  0.79780445     1.35200
V490        V  0.48650878  0.80079605  0.76823798     1.35200
C491        C  0.03515246  0.87600542  0.72852808     0.77800
C492        C  0.49329688  0.68743523  0.83854165     0.77900
C493        C  0.48992625  0.71593213  0.67153703     0.77700
C494        C  0.03724849  0.84856732  0.89339973     0.77700
C495        C  0.30119821  0.63038951  0.71985145    -0.02100
C496        C  0.47739133  0.62038674  0.84894807    -0.02100
C497        C  0.37000457  0.63710739  0.71254350    -0.20900
C498        C  0.34756590  0.63506226  0.75171974    -0.09000
C499        C  0.36933380  0.64623071  0.82137608     0.29900
C500        C  0.41008991  0.64126204  0.85137347    -0.20900
C501        C  0.43157949  0.62552145  0.81350886    -0.09000
C502        C  0.41088181  0.63240548  0.74247990     0.29900
F503        F  0.43003020  0.63507513  0.70146716    -0.19500
H504        H  0.35652430  0.64361724  0.65834224     0.18200
H505        H  0.42507981  0.65262716  0.90430318     0.18300
F506        F  0.35084623  0.66353865  0.86012444    -0.19500
C507        C  0.22394686  0.53983078  0.76255585    -0.20900
C508        C  0.24629145  0.50206837  0.81681679    -0.09000
C509        C  0.28790386  0.00919412  0.84157838     0.29900
C510        C  0.30516282  0.54505447  0.80749446    -0.20900
C511        C  0.28269050  0.58150549  0.75197243    -0.09000
C512        C  0.24107480  0.57475910  0.72776301     0.29900
F513        F  0.21574268  0.60462563  0.67181897    -0.19500
H514        H  0.19280138  0.54282749  0.74542043     0.18200
H515        H  0.33640938  0.54325594  0.82583720     0.18300
F516        F  0.31308640  0.97933239  0.89766424    -0.19500
C517        C  0.99203803  0.49398947  0.72917111    -0.20900
C518        C  0.03331194  0.49201513  0.75281411    -0.09000
C519        C  0.05498598  0.53450680  0.80613198     0.29900
C520        C  0.03669559  0.56855003  0.83977448    -0.20900
C521        C  0.99539153  0.57051988  0.81633424    -0.09000
C522        C  0.47377693  0.52743618  0.76345742     0.29900
F523        F  0.43556058  0.51362164  0.74649890    -0.19500
H524        H  0.47315599  0.46692072  0.68462361     0.18200
H525        H  0.05580562  0.59680969  0.88305622     0.18300
F526        F  0.09320208  0.04838702  0.82330342    -0.19500
C527        C  0.15923355  0.93570821  0.85293778    -0.20900
C528        C  0.18136562  0.94583084  0.81411231    -0.09000
C529        C  0.16025271  0.93733759  0.74350875     0.29900
C530        C  0.11932320  0.93704186  0.71331665    -0.20900
C531        C  0.09709990  0.94007609  0.75248760    -0.09000
C532        C  0.11830523  0.93155642  0.82287702     0.29900
F533        F  0.09937397  0.92224457  0.86349400    -0.19500
H534        H  0.17311413  0.92996807  0.90714961     0.18200
H535        H  0.10536112  0.93310668  0.65872825     0.18300
F536        F  0.17941807  0.92861377  0.70347700    -0.19500
C537        C  0.15821706  0.81631012  0.54123886    -0.20900
C538        C  0.17966570  0.87473995  0.56399249    -0.09000
C539        C  0.15733594  0.93019517  0.55595083     0.29900
C540        C  0.11858122  0.92937824  0.51164884    -0.20900
C541        C  0.09602280  0.87241255  0.49891637    -0.09000
C542        C  0.11727591  0.81463763  0.51225898     0.29900
F543        F  0.09867143  0.75642811  0.49738364    -0.19500
H544        H  0.17271712  0.77118797  0.54752401     0.18200
H545        H  0.10693208  0.97495806  0.49035516     0.18300
F546        F  0.17100826  0.98449107  0.59395444    -0.19500
C547        C  0.99237169  0.80868802  0.96869269    -0.20900
C548        C  0.03250288  0.82515047  0.50170949    -0.09000
C549        C  0.05241507  0.80397060  0.56863436     0.29900
C550        C  0.03417650  0.76240855  0.59681535    -0.20900
C551        C  0.99417272  0.74431495  0.56321476    -0.09000
C552        C  0.97365771  0.76909559  0.49762363     0.29900
F553        F  0.43553293  0.75556695  0.95913031    -0.19500
H554        H  0.97415002  0.82806591  0.92011420     0.18200
H555        H  0.05272606  0.74336955  0.64521572     0.18300
F556        F  0.08931767  0.82365427  0.60872178    -0.19500
C557        C  0.28224096  0.73840215  0.56888249    -0.20900
C558        C  0.28723953  0.75611141  0.51106347    -0.09000
C559        C  0.27189954  0.81485958  0.48311909     0.29900
C560        C  0.24440196  0.84461844  0.50010008    -0.20900
C561        C  0.23925584  0.82692356  0.55788037    -0.09000
C562        C  0.25456165  0.76794707  0.58558609     0.29900
F563        F  0.23579825  0.73274535  0.61484611    -0.19500
H564        H  0.29685800  0.69745600  0.59565313     0.18200
H565        H  0.23050542  0.88617926  0.47404829     0.18300
F566        F  0.29127566  0.85002751  0.95467437    -0.19500
C567        C  0.36484533  0.65330069  0.99118445    -0.20900
C568        C  0.34690220  0.70589777  0.50549045    -0.09000
C569        C  0.37150268  0.75786538  0.54106638     0.29900
C570        C  0.41192299  0.75336710  0.56489070    -0.20900
C571        C  0.43039138  0.69572708  0.56023362    -0.09000
C572        C  0.40479214  0.64715418  0.51735766     0.29900
F573        F  0.41565266  0.59692074  0.49043839    -0.19500
H574        H  0.34741499  0.61590761  0.95644427     0.18200
H575        H  0.42903056  0.79664989  0.58637029     0.18300
F576        F  0.35735983  0.81453682  0.55073665    -0.19500
C577        C  0.80194236  0.20715170  0.47340539    -0.02100
C578        C  0.97646826  0.19390028  0.09600634    -0.02100
O579        O  0.77508712  0.47414791  0.46563701    -0.71400
O580        O  0.80833017  0.06384626  0.13388494    -0.71600
O581        O  0.77704858  0.44871925  0.09061828    -0.71500
O582        O  0.80768024  0.09335806  0.01232833    -0.71500
O583        O  0.75040406  0.13361896  0.47753940    -0.71500
O584        O  0.72026385  0.48931175  0.05535865    -0.71500
O585        O  0.75251831  0.10843459  0.10201533    -0.71400
O586        O  0.71888639  0.01780939  0.43349147    -0.71600
V587        V  0.79105629  0.02115654  0.04939702     1.35200
V588        V  0.73655537  0.06113708  0.01826311     1.35200
C589        C  0.74093390  0.48032111  0.42011553     0.77800
C590        C  0.78671001  0.10203034  0.14737355     0.77900
C591        C  0.74224400  0.44327003  0.08503941     0.77700
C592        C  0.78524258  0.13971988  0.48363196     0.77700
O593        O  0.96783825  0.06405252  0.44161403    -0.71400
O594        O  0.50500031  0.45649093  0.09894808    -0.71600
O595        O  0.97502874  0.07607101  0.07394320    -0.71500
O596        O  0.49891952  0.44621792  0.46926348    -0.71500
O597        O  0.55799958  0.48075418  0.01926331    -0.71500
O598        O  0.52631389  0.12894770  0.08261250    -0.71500
O599        O  0.55726195  0.01646591  0.13722059    -0.71400
O600        O  0.52690678  0.09492917  0.46406224    -0.71600
V601        V  0.98721529  0.01180562  0.02123241     1.35200
V602        V  0.54148649  0.05423788  0.05039644     1.35200
C603        C  0.99117727  0.09520494  0.42317662     0.77800
C604        C  0.53760484  0.47041819  0.14699971     0.77900
C605        C  0.99395392  0.12900826  0.08741877     0.77700
C606        C  0.53461299  0.43815453  0.48177341     0.77700
C607        C  0.72509830  0.37644668  0.09625315    -0.02100
C608        C  0.55024953  0.37298199  0.46747396    -0.02100
C609        C  0.55109552  0.44327947  0.21910603    -0.02100
C610        C  0.72739968  0.45254202  0.34762598    -0.02100
O611        O  0.75356996  0.22382446  0.35517827    -0.71400
O612        O  0.71764375  0.31602202  0.18728753    -0.71600
O613        O  0.75211218  0.20068268  0.23150458    -0.71500
O614        O  0.72002170  0.33912791  0.31058162    -0.71500
O615        O  0.77681185  0.38272704  0.33746392    -0.71500
O616        O  0.80899348  0.24383233  0.25885678    -0.71500
O617        O  0.77483764  0.35901469  0.21372629    -0.71400
O618        O  0.81075809  0.26741176  0.38286401    -0.71600
V619        V  0.73700433  0.27050679  0.27127452     1.35200
V620        V  0.79177136  0.31256390  0.29813826     1.35200
C621        C  0.78854587  0.23021052  0.39865744     0.77800
C622        C  0.73954062  0.35321887  0.17102812     0.77900
C623        C  0.78623956  0.19604532  0.23370609     0.76500
C624        C  0.74265508  0.38723515  0.33490142     0.77700
O625        O  0.55818228  0.33083691  0.25683021    -0.71400
O626        O  0.52750709  0.19371331  0.34159501    -0.71600
O627        O  0.52482827  0.21161139  0.21556282    -0.71500
O628        O  0.55932198  0.31091070  0.37975452    -0.71500
O629        O  0.50315055  0.35467576  0.34798553    -0.71500
O630        O  0.96764819  0.24927340  0.18854419    -0.71500
O631        O  0.97073943  0.23384852  0.31299002    -0.71400
O632        O  0.50016054  0.36766817  0.22140200    -0.71600
V633        V  0.54137980  0.26238982  0.29784615     1.35200
V634        V  0.98653617  0.30068544  0.26828769     1.35200
C635        C  0.53513734  0.37591667  0.22850523     0.77800
C636        C  0.99333381  0.18733629  0.33859075     0.77900
C637        C  0.98997458  0.21585823  0.17158709     0.77700
C638        C  0.53727869  0.34850590  0.39344102     0.77700
C639        C  0.80120955  0.13044296  0.21991384    -0.02100
C640        C  0.97740746  0.12030193  0.34900140    -0.02100
C641        C  0.87002098  0.13701504  0.21260447    -0.20900
C642        C  0.84758266  0.13511209  0.25178898    -0.09000
C643        C  0.86936611  0.14636622  0.32143737     0.29900
C644        C  0.91012292  0.14131670  0.35144281    -0.20900
C645        C  0.93159864  0.12546098  0.31357914    -0.09000
C646        C  0.91089546  0.13225022  0.24253652     0.29900
F647        F  0.93003603  0.13476770  0.20150623    -0.19500
H648        H  0.85653954  0.14346132  0.15838409     0.18200
H649        H  0.92512767  0.15268851  0.40438534     0.18300
F650        F  0.85089997  0.16384570  0.36016513    -0.19500
C651        C  0.72390826  0.03988745  0.26251324    -0.20900
C652        C  0.74623248  0.00214620  0.31680576    -0.09000
C653        C  0.78784720  0.50931807  0.34165954     0.29900
C654        C  0.80513514  0.04523840  0.30766427    -0.20900
C655        C  0.78268310  0.08161047  0.25206066    -0.09000
C656        C  0.74106493  0.07482653  0.22777194     0.29900
F657        F  0.71575177  0.10464035  0.17176857    -0.19500
H658        H  0.69275961  0.04283512  0.24529435     0.18200
H659        H  0.83638432  0.04351042  0.32611191     0.18300
F660        F  0.81300869  0.47941801  0.39773567    -0.19500
C661        C  0.49197764  0.99380590  0.22924449    -0.20900
C662        C  0.53324781  0.99191867  0.25276254    -0.09000
C663        C  0.55493630  0.03446031  0.30601899     0.29900
C664        C  0.53668407  0.06843777  0.33976677    -0.20900
C665        C  0.49538661  0.07038682  0.31640547    -0.09000
C666        C  0.97375303  0.02723474  0.26361149     0.29900
F667        F  0.93556047  0.01335578  0.24682388    -0.19500
H668        H  0.97307579  0.96670849  0.18473064     0.18200
H669        H  0.55581258  0.09670040  0.38303649     0.18300
F670        F  0.59312073  0.54846186  0.32300612    -0.19500
C671        C  0.65916105  0.43575189  0.35284284    -0.20900
C672        C  0.68129406  0.44585615  0.31401886    -0.09000
C673        C  0.66018666  0.43735667  0.24342413     0.29900
C674        C  0.61926018  0.43702895  0.21324038    -0.20900
C675        C  0.59703678  0.44006368  0.25240789    -0.09000
C676        C  0.61823901  0.43159026  0.32279555     0.29900
F677        F  0.59931223  0.42230621  0.36342963    -0.19500
H678        H  0.67303417  0.43003023  0.40704317     0.18200
H679        H  0.60530285  0.43308080  0.15866735     0.18300
F680        F  0.67935228  0.42864182  0.20338916    -0.19500
C681        C  0.65819915  0.31637276  0.04109232    -0.20900
C682        C  0.67964994  0.37480086  0.06387245    -0.09000
C683        C  0.65732112  0.43025644  0.05586574     0.29900
C684        C  0.61855836  0.42944270  0.01160216    -0.20900
C685        C  0.59600087  0.37247177  0.99885612    -0.09000
C686        C  0.61725705  0.31470036  0.01214981     0.29900
F687        F  0.59865256  0.25649270  0.99725059    -0.19500
H688        H  0.67269766  0.27124374  0.04733251     0.18200
H689        H  0.60690696  0.47503268  0.99033797     0.18300
F690        F  0.67099601  0.48453360  0.09389715    -0.19500
C691        C  0.49238178  0.30868287  0.46869817    -0.20900
C692        C  0.53249269  0.32517360  0.00168213    -0.09000
C693        C  0.55242089  0.30399451  0.06860244     0.29900
C694        C  0.53420025  0.26241735  0.09680310    -0.20900
C695        C  0.49419828  0.24431128  0.06323462    -0.09000
C696        C  0.47366783  0.26908196  0.99764139     0.29900
F697        F  0.93552041  0.25561385  0.45910052    -0.19500
H698        H  0.47417734  0.32806534  0.42011938     0.18200
H699        H  0.55276455  0.24337791  0.14518970     0.18300
F700        F  0.58932278  0.32369616  0.10866689    -0.19500
C701        C  0.78223875  0.23843195  0.06892274    -0.20900
C702        C  0.78731097  0.25615162  0.01117805    -0.09000
C703        C  0.77203060  0.31494420  0.98324254     0.29900
C704        C  0.74448458  0.34472548  0.00009147    -0.20900
C705        C  0.73924807  0.32697866  0.05779249    -0.09000
C706        C  0.75452039  0.26797309  0.08551267     0.29900
F707        F  0.73572747  0.23278703  0.11473618    -0.19500
H708        H  0.79684038  0.19748952  0.09572481     0.18200
H709        H  0.73063260  0.38633373  0.97403998     0.18300
F710        F  0.79107405  0.34996852  0.45444857    -0.19500
C711        C  0.86479985  0.15324075  0.49112999    -0.20900
C712        C  0.84696832  0.20593511  0.00562469    -0.09000
C713        C  0.87157786  0.25784749  0.04131554     0.29900
C714        C  0.91198968  0.25335610  0.06504740    -0.20900
C715        C  0.93043696  0.19572782  0.06029516    -0.09000
C716        C  0.90482786  0.14719235  0.01737924     0.29900
F717        F  0.91566399  0.09697277  0.99040215    -0.19500
H718        H  0.84738471  0.11584446  0.45637217     0.18200
H719        H  0.92910882  0.29661322  0.08658766     0.18300
F720        F  0.85745945  0.31445075  0.05123843    -0.19500
C721        C  0.80201640  0.20718156  0.97354683    -0.02100
C722        C  0.97643158  0.19391499  0.59597430    -0.02100
O723        O  0.77519373  0.47428745  0.96567596    -0.71400
O724        O  0.80832559  0.06393755  0.63372760    -0.71600
O725        O  0.77704145  0.44873646  0.59066921    -0.71500
O726        O  0.80757570  0.09327443  0.51206474    -0.71500
O727        O  0.75047201  0.13361117  0.97755465    -0.71500
O728        O  0.72022537  0.48922123  0.55528172    -0.71500
O729        O  0.75246730  0.10834012  0.60199637    -0.71400
O730        O  0.71894726  0.01778566  0.93357246    -0.71600
V731        V  0.79099922  0.02112836  0.54929591     1.35200
V732        V  0.73649923  0.06109739  0.51821394     1.35200
C733        C  0.74102333  0.48037795  0.92017495     0.77800
C734        C  0.78668831  0.10202989  0.64728711     0.77900
C735        C  0.74223291  0.44323491  0.58505945     0.77700
C736        C  0.78533240  0.13975517  0.98378712     0.77700
O737        O  0.96782092  0.06408665  0.94155096    -0.71400
O738        O  0.50506524  0.45649820  0.59902884    -0.71600
O739        O  0.97503878  0.07606183  0.57398440    -0.71500
O740        O  0.49888214  0.44623283  0.96919199    -0.71500
O741        O  0.55803644  0.48074459  0.51932380    -0.71500
O742        O  0.52630976  0.12896484  0.58262545    -0.71500
O743        O  0.55731057  0.01651475  0.63728352    -0.71400
O744        O  0.52689070  0.09496105  0.96402615    -0.71600
V745        V  0.98724893  0.01179059  0.52130054     1.35200
V746        V  0.54151171  0.05424673  0.55044172     1.35200
C747        C  0.99116156  0.09525135  0.92312634     0.77800
C748        C  0.53766827  0.47045546  0.64707340     0.77900
C749        C  0.99394525  0.12901737  0.58742877     0.77700
C750        C  0.53457743  0.43817161  0.98171291     0.77700
C751        C  0.72511348  0.37640046  0.59634490    -0.02100
C752        C  0.55022574  0.37301680  0.96743195    -0.02100
C753        C  0.55115708  0.44334131  0.71918249    -0.02100
C754        C  0.72747463  0.45251565  0.84770848    -0.02100
O755        O  0.75363009  0.22380377  0.85532568    -0.71400
O756        O  0.71768141  0.31595478  0.68739937    -0.71600
O757        O  0.75213859  0.20060923  0.73162069    -0.71500
O758        O  0.72008155  0.33908768  0.81070993    -0.71500
O759        O  0.77688093  0.38264194  0.83760031    -0.71500
O760        O  0.80901163  0.24376076  0.75889147    -0.71500
O761        O  0.77486827  0.35896549  0.71381963    -0.71400
O762        O  0.81082611  0.26733857  0.88294677    -0.71600
V763        V  0.73705067  0.27045281  0.77140002     1.35200
V764        V  0.79181802  0.31249264  0.79822501     1.35200
C765        C  0.78861154  0.23018817  0.89878413     0.77800
C766        C  0.73956991  0.35316510  0.67112916     0.77900
C767        C  0.78625022  0.19597788  0.73374812     0.76500
C768        C  0.74272559  0.38717918  0.83503707     0.77700
O769        O  0.55815856  0.33084847  0.75673143    -0.71400
O770        O  0.52748702  0.19385184  0.84164480    -0.71600
O771        O  0.52476421  0.21160081  0.71556181    -0.71500
O772        O  0.55930805  0.31104831  0.87966691    -0.71500
O773        O  0.50310609  0.35468926  0.84798714    -0.71500
O774        O  0.96762560  0.24949188  0.68841742    -0.71500
O775        O  0.97068178  0.23390438  0.81283820    -0.71400
O776        O  0.50018078  0.36783898  0.72148760    -0.71600
V777        V  0.54134600  0.26246234  0.79780436     1.35200
V778        V  0.98650884  0.30079602  0.76823804     1.35200
C779        C  0.53515256  0.37600546  0.72852828     0.77800
C780        C  0.99329663  0.18743529  0.83854137     0.77900
C781        C  0.98992642  0.21593218  0.67153682     0.77700
C782        C  0.53724837  0.34856724  0.89339990     0.77700
C783        C  0.80119849  0.13038961  0.71985159    -0.02100
C784        C  0.97739121  0.12038699  0.84894816    -0.02100
C785        C  0.87000468  0.13710742  0.71254426    -0.20900
C786        C  0.84756586  0.13506237  0.75172004    -0.09000
C787        C  0.86933376  0.14623062  0.82137612     0.29900
C788        C  0.91008988  0.14126214  0.85137355    -0.20900
C789        C  0.93157933  0.12552154  0.81350862    -0.09000
C790        C  0.91088178  0.13240561  0.74248007     0.29900
F791        F  0.93003014  0.13507509  0.70146707    -0.19500
H792        H  0.85652423  0.14361768  0.65834360     0.18200
H793        H  0.92507989  0.15262734  0.90430337     0.18300
F794        F  0.85084618  0.16353878  0.86012434    -0.19500
C795        C  0.72394693  0.03983130  0.76255536    -0.20900
C796        C  0.74629144  0.00206884  0.81681654    -0.09000
C797        C  0.78790384  0.50919410  0.84157824     0.29900
C798        C  0.80516251  0.04505409  0.80749475    -0.20900
C799        C  0.78269072  0.08150529  0.75197281    -0.09000
C800        C  0.74107537  0.07475928  0.72776318     0.29900
F801        F  0.71574311  0.10462573  0.67181896    -0.19500
H802        H  0.69280162  0.04282832  0.74541906     0.18200
H803        H  0.83640803  0.04325531  0.82583752     0.18300
F804        F  0.81308740  0.47933260  0.89766467    -0.19500
C805        C  0.49203695  0.99398878  0.72916973    -0.20900
C806        C  0.53331135  0.99201484  0.75281337    -0.09000
C807        C  0.55498598  0.03450738  0.80613261     0.29900
C808        C  0.53669583  0.06855152  0.83977581    -0.20900
C809        C  0.49539157  0.07052056  0.81633487    -0.09000
C810        C  0.97377663  0.02743666  0.76345804     0.29900
F811        F  0.93555991  0.01362155  0.74649890    -0.19500
H812        H  0.97315416  0.96691907  0.68462192     0.18200
H813        H  0.55580672  0.09681434  0.88306030     0.18300
F814        F  0.59320247  0.54838716  0.82330357    -0.19500
C815        C  0.65923364  0.43570818  0.85293753    -0.20900
C816        C  0.68136597  0.44583103  0.81411246    -0.09000
C817        C  0.66025288  0.43733780  0.74350870     0.29900
C818        C  0.61932324  0.43704182  0.71331625    -0.20900
C819        C  0.59709999  0.44007610  0.75248751    -0.09000
C820        C  0.61830530  0.43155646  0.82287696     0.29900
F821        F  0.59937397  0.42224457  0.86349394    -0.19500
H822        H  0.67311435  0.42996723  0.90714923     0.18200
H823        H  0.60536104  0.43310611  0.65872729     0.18300
F824        F  0.67941819  0.42861396  0.70347707    -0.19500
C825        C  0.65821910  0.31630244  0.54123994    -0.20900
C826        C  0.67966623  0.37473732  0.56399279    -0.09000
C827        C  0.65733547  0.43019560  0.55595110     0.29900
C828        C  0.61858111  0.42937825  0.51164915    -0.20900
C829        C  0.59602227  0.37241351  0.49891617    -0.09000
C830        C  0.61727619  0.31463504  0.51225909     0.29900
F831        F  0.59867107  0.25642755  0.49738344    -0.19500
H832        H  0.67272220  0.27117024  0.54752769     0.18200
H833        H  0.60693109  0.47496109  0.49035542     0.18300
F834        F  0.67100842  0.48449016  0.59395445    -0.19500
C835        C  0.49237283  0.30868689  0.96869550    -0.20900
C836        C  0.53250297  0.32515074  0.50170964    -0.09000
C837        C  0.55241483  0.30397168  0.56863321     0.29900
C838        C  0.53417623  0.26240992  0.59681221    -0.20900
C839        C  0.49417297  0.24431550  0.56321442    -0.09000
C840        C  0.47365790  0.26909564  0.49762419     0.29900
F841        F  0.93553297  0.25556676  0.95913059    -0.19500
H842        H  0.47415251  0.32806310  0.92012066     0.18200
H843        H  0.55272623  0.24337009  0.64520709     0.18300
F844        F  0.58931771  0.32365464  0.60872130    -0.19500
C845        C  0.78223534  0.23841670  0.56887298    -0.20900
C846        C  0.78723855  0.25611589  0.51106108    -0.09000
C847        C  0.77190031  0.31485818  0.48311974     0.29900
C848        C  0.74440198  0.34461930  0.50009920    -0.20900
C849        C  0.73925597  0.32692232  0.55788088    -0.09000
C850        C  0.75455982  0.26795206  0.58558403     0.29900
F851        F  0.73579794  0.23274517  0.61484614    -0.19500
H852        H  0.79684488  0.19748332  0.59563406     0.18200
H853        H  0.73050698  0.38618112  0.47404802     0.18300
F854        F  0.79127567  0.35002729  0.95467436    -0.19500
C855        C  0.86484512  0.15330032  0.99118416    -0.20900
C856        C  0.84690238  0.20589854  0.50549118    -0.09000
C857        C  0.87150233  0.25786502  0.54106634     0.29900
C858        C  0.91192295  0.25336700  0.56489109    -0.20900
C859        C  0.93039085  0.19572614  0.56023306    -0.09000
C860        C  0.90479189  0.14715460  0.51735785     0.29900
F861        F  0.91565242  0.09692044  0.49043850    -0.19500
H862        H  0.84741507  0.11590809  0.95644445     0.18200
H863        H  0.92903028  0.29664937  0.58637013     0.18300
F864        F  0.85736002  0.31453790  0.55073714    -0.19500
C865        C  0.80194246  0.70715147  0.47340533    -0.02100
C866        C  0.97646832  0.69390024  0.09600601    -0.02100
O867        O  0.77508708  0.97414807  0.46563708    -0.71400
O868        O  0.80832998  0.56384590  0.13388512    -0.71600
O869        O  0.77704881  0.94871921  0.09061836    -0.71500
O870        O  0.80768032  0.59335798  0.01232853    -0.71500
O871        O  0.75040399  0.63361876  0.47753929    -0.71500
O872        O  0.72026410  0.98931176  0.05535875    -0.71500
O873        O  0.75251817  0.60843449  0.10201523    -0.71400
O874        O  0.71888641  0.51780929  0.43349158    -0.71600
V875        V  0.79105614  0.52115650  0.04939701     1.35200
V876        V  0.73655520  0.56113702  0.01826296     1.35200
C877        C  0.74093381  0.98032103  0.42011561     0.77800
C878        C  0.78670981  0.60202996  0.14737364     0.77900
C879        C  0.74224448  0.94326997  0.08503961     0.77700
C880        C  0.78524254  0.63971940  0.48363190     0.77700
O881        O  0.96783830  0.56405209  0.44161388    -0.71400
O882        O  0.50500014  0.95649086  0.09894809    -0.71600
O883        O  0.97502895  0.57607124  0.07394341    -0.71500
O884        O  0.49891931  0.94621800  0.46926333    -0.71500
O885        O  0.55800021  0.98075441  0.01926305    -0.71500
O886        O  0.52631406  0.62894761  0.08261237    -0.71500
O887        O  0.55726215  0.51646578  0.13722042    -0.71400
O888        O  0.52690683  0.59492921  0.46406244    -0.71600
V889        V  0.98721520  0.51180588  0.02123240     1.35200
V890        V  0.54148634  0.55423774  0.05039623     1.35200
C891        C  0.99117724  0.59520449  0.42317621     0.77800
C892        C  0.53760450  0.97041836  0.14699981     0.77900
C893        C  0.99395413  0.62900879  0.08741883     0.77700
C894        C  0.53461266  0.93815440  0.48177317     0.77700
C895        C  0.72509867  0.87644616  0.09625360    -0.02100
C896        C  0.55024935  0.87298190  0.46747422    -0.02100
C897        C  0.55109507  0.94327961  0.21910612    -0.02100
C898        C  0.72739909  0.95254224  0.34762527    -0.02100
O899        O  0.75356971  0.72382426  0.35517799    -0.71400
O900        O  0.71764387  0.81602213  0.18728758    -0.71600
O901        O  0.75211227  0.70068285  0.23150459    -0.71500
O902        O  0.72002184  0.83912798  0.31058159    -0.71500
O903        O  0.77681202  0.88272697  0.33746402    -0.71500
O904        O  0.80899371  0.74383210  0.25885671    -0.71500
O905        O  0.77483777  0.85901476  0.21372643    -0.71400
O906        O  0.81075790  0.76741144  0.38286398    -0.71600
V907        V  0.73700447  0.77050690  0.27127447     1.35200
V908        V  0.79177157  0.81256381  0.29813839     1.35200
C909        C  0.78854554  0.73021007  0.39865712     0.77800
C910        C  0.73954108  0.85321932  0.17102849     0.77900
C911        C  0.78623985  0.69604556  0.23370618     0.76500
C912        C  0.74265543  0.88723541  0.33490147     0.77700
O913        O  0.55818206  0.83083720  0.25683001    -0.71400
O914        O  0.52750705  0.69371338  0.34159497    -0.71600
O915        O  0.52482835  0.71161151  0.21556299    -0.71500
O916        O  0.55932190  0.81091094  0.37975451    -0.71500
O917        O  0.50315033  0.85467552  0.34798554    -0.71500
O918        O  0.96764807  0.74927335  0.18854405    -0.71500
O919        O  0.97073943  0.73384845  0.31299012    -0.71400
O920        O  0.50016027  0.86766847  0.22140193    -0.71600
V921        V  0.54137974  0.76239001  0.29784615     1.35200
V922        V  0.98653602  0.80068556  0.26828753     1.35200
C923        C  0.53513696  0.87591699  0.22850511     0.77800
C924        C  0.99333381  0.68733600  0.33859053     0.77900
C925        C  0.98997451  0.71585850  0.17158702     0.77700
C926        C  0.53727848  0.84850573  0.39344099     0.77700
C927        C  0.80120912  0.63044291  0.21991369    -0.02100
C928        C  0.97740738  0.62030134  0.34900076    -0.02100
C929        C  0.87002051  0.63701502  0.21260418    -0.20900
C930        C  0.84758270  0.63511176  0.25178975    -0.09000
C931        C  0.86936640  0.64636630  0.32143732     0.29900
C932        C  0.91012280  0.64131591  0.35144066    -0.20900
C933        C  0.93159856  0.62546056  0.31357793    -0.09000
C934        C  0.91089526  0.63225008  0.24253596     0.29900
F935        F  0.93003551  0.63476770  0.20150490    -0.19500
H936        H  0.85653862  0.64346199  0.15838393     0.18200
H937        H  0.92512702  0.65268660  0.40438079     0.18300
F938        F  0.85090068  0.66384586  0.36016586    -0.19500
C939        C  0.72390405  0.53988709  0.26251166    -0.20900
C940        C  0.74623188  0.50214588  0.31680583    -0.09000
C941        C  0.78784617  0.00931764  0.34165910     0.29900
C942        C  0.80513493  0.54523891  0.30766367    -0.20900
C943        C  0.78268359  0.58161105  0.25206082    -0.09000
C944        C  0.74106354  0.57482679  0.22777123     0.29900
F945        F  0.71575095  0.60463996  0.17176851    -0.19500
H946        H  0.69274872  0.54283265  0.24528880     0.18200
H947        H  0.83638518  0.54351157  0.32611141     0.18300
F948        F  0.81300880  0.97941737  0.39773649    -0.19500
C949        C  0.49197764  0.49380440  0.22924303    -0.20900
C950        C  0.53324820  0.49191822  0.25276236    -0.09000
C951        C  0.55493654  0.53446066  0.30601937     0.29900
C952        C  0.53668400  0.56843792  0.33976672    -0.20900
C953        C  0.49538667  0.57038675  0.31640516    -0.09000
C954        C  0.97375294  0.52723396  0.26361046     0.29900
F955        F  0.93556054  0.51335494  0.24682299    -0.19500
H956        H  0.97307547  0.46670489  0.18472715     0.18200
H957        H  0.55581255  0.59670146  0.38303738     0.18300
F958        F  0.59312086  0.04846170  0.32300608    -0.19500
C959        C  0.65916076  0.93575208  0.35284219    -0.20900
C960        C  0.68129408  0.94585651  0.31401868    -0.09000
C961        C  0.66018622  0.93735736  0.24342358     0.29900
C962        C  0.61925929  0.93702852  0.21323989    -0.20900
C963        C  0.59703634  0.94006395  0.25240824    -0.09000
C964        C  0.61823885  0.93159018  0.32279568     0.29900
F965        F  0.59931233  0.92230608  0.36342995    -0.19500
H966        H  0.67303356  0.93003128  0.40704250     0.18200
H967        H  0.60530068  0.93307750  0.15866604     0.18300
F968        F  0.67935168  0.92864203  0.20338861    -0.19500
C969        C  0.65819869  0.81637631  0.04109225    -0.20900
C970        C  0.67964999  0.87480247  0.06387273    -0.09000
C971        C  0.65732175  0.93025592  0.05586634     0.29900
C972        C  0.61855942  0.92944151  0.01160267    -0.20900
C973        C  0.59600142  0.87247157  0.99885614    -0.09000
C974        C  0.61725713  0.81470215  0.01215009     0.29900
F975        F  0.59865321  0.75649283  0.99725108    -0.19500
H976        H  0.67269600  0.77125235  0.04733120     0.18200
H977        H  0.60690983  0.97502730  0.99033797     0.18300
F978        F  0.67099652  0.98453379  0.09389778    -0.19500
C979        C  0.49238087  0.80868317  0.46869688    -0.20900
C980        C  0.53249198  0.82517392  0.00168071    -0.09000
C981        C  0.55242080  0.80399437  0.06860238     0.29900
C982        C  0.53420027  0.76241761  0.09680245    -0.20900
C983        C  0.49419871  0.74431109  0.06323550    -0.09000
C984        C  0.47366717  0.76908188  0.99764066     0.29900
F985        F  0.93552119  0.75561396  0.45910059    -0.19500
H986        H  0.47417523  0.82806599  0.42011528     0.18200
H987        H  0.55276501  0.74337806  0.14518922     0.18300
F988        F  0.58932237  0.82369637  0.10866567    -0.19500
C989        C  0.78223964  0.73843015  0.06892353    -0.20900
C990        C  0.78731135  0.75615070  0.01117840    -0.09000
C991        C  0.77203046  0.81494510  0.98324223     0.29900
C992        C  0.74448411  0.84472807  0.00009012    -0.20900
C993        C  0.73924829  0.82697945  0.05779218    -0.09000
C994        C  0.75452113  0.76797193  0.08551330     0.29900
F995        F  0.73572784  0.73278663  0.11473658    -0.19500
H996        H  0.79684250  0.69748644  0.09572676     0.18200
H997        H  0.73063218  0.88634023  0.97403795     0.18300
F998        F  0.79107419  0.84996861  0.45444854    -0.19500
C999        C  0.86479884  0.65323760  0.49112759    -0.20900
C1000       C  0.84696808  0.70593418  0.00562394    -0.09000
C1001       C  0.87157806  0.75784829  0.04131584     0.29900
C1002       C  0.91199126  0.75335996  0.06504897    -0.20900
C1003       C  0.93043744  0.69572868  0.06029547    -0.09000
C1004       C  0.90482775  0.64719182  0.01737883     0.29900
F1005       F  0.91566432  0.59697330  0.99040319    -0.19500
H1006       H  0.84738183  0.61583638  0.45636647     0.18200
H1007       H  0.92911301  0.79662325  0.08659188     0.18300
F1008       F  0.85745958  0.81445099  0.05123856    -0.19500
C1009       C  0.80201664  0.70718160  0.97354663    -0.02100
C1010       C  0.97643141  0.69391511  0.59597384    -0.02100
O1011       O  0.77519367  0.97428718  0.96567601    -0.71400
O1012       O  0.80832528  0.56393715  0.63372771    -0.71600
O1013       O  0.77704151  0.94873658  0.59066920    -0.71500
O1014       O  0.80757567  0.59327429  0.51206487    -0.71500
O1015       O  0.75047209  0.63361102  0.97755458    -0.71500
O1016       O  0.72022544  0.98922146  0.55528174    -0.71500
O1017       O  0.75246711  0.60834026  0.60199607    -0.71400
O1018       O  0.71894708  0.51778522  0.93357242    -0.71600
V1019       V  0.79099918  0.52112815  0.54929596     1.35200
V1020       V  0.73649920  0.56109726  0.51821389     1.35200
C1021       C  0.74102353  0.98037852  0.92017473     0.77800
C1022       C  0.78668815  0.60202975  0.64728701     0.77900
C1023       C  0.74223298  0.94323530  0.58505947     0.77700
C1024       C  0.78533266  0.63975502  0.98378712     0.77700
O1025       O  0.96782073  0.56408721  0.94155104    -0.71400
O1026       O  0.50506514  0.95649853  0.59902877    -0.71600
O1027       O  0.97503870  0.57606170  0.57398452    -0.71500
O1028       O  0.49888252  0.94623301  0.96919227    -0.71500
O1029       O  0.55803636  0.98074444  0.51932343    -0.71500
O1030       O  0.52630974  0.62896493  0.58262557    -0.71500
O1031       O  0.55731054  0.51651475  0.63728359    -0.71400
O1032       O  0.52689071  0.59496095  0.96402607    -0.71600
V1033       V  0.98724889  0.51179031  0.52130055     1.35200
V1034       V  0.54151170  0.55424675  0.55044191     1.35200
C1035       C  0.99116153  0.59525179  0.92312647     0.77800
C1036       C  0.53766833  0.97045586  0.64707357     0.77900
C1037       C  0.99394497  0.62901710  0.58742877     0.77700
C1038       C  0.53457795  0.93817196  0.98171289     0.77700
C1039       C  0.72511362  0.87640062  0.59634504    -0.02100
C1040       C  0.55022577  0.87301716  0.96743191    -0.02100
C1041       C  0.55115701  0.94334167  0.71918282    -0.02100
C1042       C  0.72747441  0.95251605  0.84770790    -0.02100
O1043       O  0.75363022  0.72380381  0.85532565    -0.71400
O1044       O  0.71768122  0.81595472  0.68739916    -0.71600
O1045       O  0.75213862  0.70060936  0.73162071    -0.71500
O1046       O  0.72008145  0.83908759  0.81070991    -0.71500
O1047       O  0.77688073  0.88264208  0.83760011    -0.71500
O1048       O  0.80901174  0.74376069  0.75889144    -0.71500
O1049       O  0.77486806  0.85896549  0.71381945    -0.71400
O1050       O  0.81082619  0.76733880  0.88294670    -0.71600
V1051       V  0.73705076  0.77045286  0.77140003     1.35200
V1052       V  0.79181807  0.81249280  0.79822492     1.35200
C1053       C  0.78861189  0.73018829  0.89878414     0.77800
C1054       C  0.73956968  0.85316539  0.67112907     0.77900
C1055       C  0.78625046  0.69597818  0.73374817     0.76500
C1056       C  0.74272568  0.88717943  0.83503692     0.77700
O1057       O  0.55815845  0.83084860  0.75673138    -0.71400
O1058       O  0.52748723  0.69385155  0.84164506    -0.71600
O1059       O  0.52476381  0.71160037  0.71556236    -0.71500
O1060       O  0.55930801  0.81104850  0.87966688    -0.71500
O1061       O  0.50310596  0.85468912  0.84798706    -0.71500
O1062       O  0.96762562  0.74949148  0.68841753    -0.71500
O1063       O  0.97068182  0.73390433  0.81283824    -0.71400
O1064       O  0.50018066  0.86783907  0.72148760    -0.71600
V1065       V  0.54134593  0.76246231  0.79780442     1.35200
V1066       V  0.98650881  0.80079604  0.76823793     1.35200
C1067       C  0.53515244  0.87600564  0.72852825     0.77800
C1068       C  0.99329676  0.68743527  0.83854161     0.77900
C1069       C  0.98992638  0.71593205  0.67153702     0.77700
C1070       C  0.53724836  0.84856728  0.89339966     0.77700
C1071       C  0.80119791  0.63038958  0.71985128    -0.02100
C1072       C  0.97739100  0.62038687  0.84894799    -0.02100
C1073       C  0.87000376  0.63710757  0.71254426    -0.20900
C1074       C  0.84756538  0.63506199  0.75172054    -0.09000
C1075       C  0.86933313  0.64623085  0.82137602     0.29900
C1076       C  0.91008894  0.64126207  0.85137258    -0.20900
C1077       C  0.93157894  0.62552183  0.81350867    -0.09000
C1078       C  0.91088114  0.63240545  0.74248010     0.29900
F1079       F  0.93002927  0.63507523  0.70146664    -0.19500
H1080       H  0.85652259  0.64361990  0.65834358     0.18200
H1081       H  0.92507799  0.65262643  0.90430122     0.18300
F1082       F  0.85084566  0.66353888  0.86012443    -0.19500
C1083       C  0.72394679  0.53983053  0.76255570    -0.20900
C1084       C  0.74629147  0.50206835  0.81681682    -0.09000
C1085       C  0.78790342  0.00919400  0.84157809     0.29900
C1086       C  0.80516285  0.54505451  0.80749452    -0.20900
C1087       C  0.78269042  0.58150548  0.75197243    -0.09000
C1088       C  0.74107474  0.57475902  0.72776295     0.29900
F1089       F  0.71574259  0.60462556  0.67181897    -0.19500
H1090       H  0.69280100  0.54282687  0.74541984     0.18200
H1091       H  0.83640945  0.54325607  0.82583734     0.18300
F1092       F  0.81308686  0.97933221  0.89766479    -0.19500
C1093       C  0.49203801  0.49398936  0.72917103    -0.20900
C1094       C  0.53331196  0.49201512  0.75281404    -0.09000
C1095       C  0.55498604  0.53450687  0.80613205     0.29900
C1096       C  0.53669569  0.56855005  0.83977467    -0.20900
C1097       C  0.49539166  0.57051988  0.81633438    -0.09000
C1098       C  0.97377690  0.52743626  0.76345741     0.29900
F1099       F  0.93556054  0.51362169  0.74649885    -0.19500
H1100       H  0.97315615  0.46692117  0.68462397     0.18200
H1101       H  0.55580573  0.59680977  0.88305679     0.18300
F1102       F  0.59320214  0.04838722  0.82330371    -0.19500
C1103       C  0.65923425  0.93570844  0.85293815    -0.20900
C1104       C  0.68136607  0.94583147  0.81411213    -0.09000
C1105       C  0.66025280  0.93733811  0.74350836     0.29900
C1106       C  0.61932329  0.93704202  0.71331672    -0.20900
C1107       C  0.59710006  0.94007618  0.75248779    -0.09000
C1108       C  0.61830571  0.93155653  0.82287744     0.29900
F1109       F  0.59937452  0.92224460  0.86349455    -0.19500
H1110       H  0.67311552  0.92996797  0.90715059     0.18200
H1111       H  0.60536122  0.93310700  0.65872833     0.18300
F1112       F  0.67941799  0.92861392  0.70347664    -0.19500
C1113       C  0.65821771  0.81630949  0.54123933    -0.20900
C1114       C  0.67966587  0.87474019  0.56399266    -0.09000
C1115       C  0.65733572  0.93019593  0.55595118     0.29900
C1116       C  0.61858095  0.92937872  0.51164924    -0.20900
C1117       C  0.59602250  0.87241296  0.49891648    -0.09000
C1118       C  0.61727614  0.81463742  0.51225929     0.29900
F1119       F  0.59867180  0.75642821  0.49738389    -0.19500
H1120       H  0.67271895  0.77118544  0.54752531     0.18200
H1121       H  0.60693150  0.97495964  0.49035512     0.18300
F1122       F  0.67100830  0.98449143  0.59395464    -0.19500
C1123       C  0.49237068  0.80868840  0.96869115    -0.20900
C1124       C  0.53250240  0.82515056  0.50170885    -0.09000
C1125       C  0.55241498  0.80397032  0.56863445     0.29900
C1126       C  0.53417651  0.76240836  0.59681573    -0.20900
C1127       C  0.49417278  0.74431471  0.56321520    -0.09000
C1128       C  0.47365744  0.76909550  0.49762341     0.29900
F1129       F  0.93553316  0.75556751  0.95913010    -0.19500
H1130       H  0.47414788  0.82806678  0.92011077     0.18200
H1131       H  0.55272616  0.74336968  0.64521731     0.18300
F1132       F  0.58931741  0.82365425  0.60872142    -0.19500
C1133       C  0.78223536  0.73841682  0.56887288    -0.20900
C1134       C  0.78723871  0.75611572  0.51106081    -0.09000
C1135       C  0.77190080  0.81485724  0.48312032     0.29900
C1136       C  0.74440268  0.84461626  0.50010135    -0.20900
C1137       C  0.73925630  0.82692152  0.55788216    -0.09000
C1138       C  0.75455983  0.76795217  0.58558430     0.29900
F1139       F  0.73579794  0.73274514  0.61484611    -0.19500
H1140       H  0.79684475  0.69748373  0.59563384     0.18200
H1141       H  0.73050606  0.88617453  0.47405006     0.18300
F1142       F  0.79127564  0.85002747  0.95467439    -0.19500
C1143       C  0.86484541  0.65330025  0.99118435    -0.20900
C1144       C  0.84690219  0.70589766  0.50549033    -0.09000
C1145       C  0.87150261  0.75786527  0.54106623     0.29900
C1146       C  0.91192291  0.75336705  0.56489052    -0.20900
C1147       C  0.93039132  0.69572702  0.56023344    -0.09000
C1148       C  0.90479208  0.64715419  0.51735750     0.29900
F1149       F  0.91565262  0.59692078  0.49043816    -0.19500
H1150       H  0.84741517  0.61590684  0.95644436     0.18200
H1151       H  0.92903042  0.79664975  0.58637004     0.18300
F1152       F  0.85735980  0.81453675  0.55073665    -0.19500
loop_ 
_geom_bond_atom_site_label_1 
_geom_bond_atom_site_label_2 
_geom_bond_distance 
_geom_bond_site_symmetry_2 
_ccdc_geom_bond_type 
C1           C16   1.583       .  S
C1           C45   1.565       .  S
C1          C270   1.548       .  S
C1          C280   1.543       .  S
C2           C29   1.558       .  S
C2           C61   1.563       .  S
C2          C139   1.581       .  S
C2          C695   1.557       .  S
O3           C13   1.266       .  A
O3          V443   1.915       .  S
O4           C14   1.264       .  A
O4           V11   1.882       .  S
O5           C15   1.268       .  A
O5          V299   1.930       .  S
O6          C160   1.277   1_554  A
O6           V11   1.921       .  S
O7           C16   1.267       .  A
O7          V156   1.923       .  S
O8           C15   1.271       .  A
O8          V300   1.909       .  S
O9           C14   1.267       .  A
O9           V12   1.919       .  S
O10         C301   1.266   1_545  A
O10         V156   1.892       .  S
V11         O435   1.915   1_544  S
V11         O293   1.930   1_545  S
V11          V12   2.070       .  T
V12         O151   1.923   1_554  S
V12         O296   1.909   1_545  S
V12         O154   1.892   1_554  S
C13          C34   1.543       .  S
C13         O298   1.266       .  A
C14          C63   1.545       .  S
C15          C31   1.586       .  S
C16         O150   1.277       .  A
O17          C27   1.274       .  A
O17         V169   1.925       .  S
O18          C28   1.267       .  A
O18         V889   1.930   1_455  S
O19          C29   1.268       .  A
O19          V25   1.935       .  S
O20          C30   1.271   1_655  A
O20        V1033   1.935       .  S
O21         C174   1.265   1_554  A
O21         V314   1.885       .  S
O22         C605   1.265   1_455  A
O22          V26   1.894       .  S
O23         C316   1.272   1_545  A
O23          V26   1.902       .  S
O24         C603   1.270   1_455  A
O24         V170   1.925       .  S
V25         O161   1.925   1_554  S
V25         O882   1.930   1_545  S
V25        O1028   1.935   1_544  S
V25         V602   2.055       .  T
V26         O309   1.885   1_545  S
V26         O168   1.925   1_554  S
V26         V601   2.055   1_455  T
C27          C64   1.566       .  S
C27         O600   1.270       .  A
C28          C33   1.543       .  S
C28         O311   1.272       .  A
C29         O598   1.265       .  A
C30          C32   1.569       .  S
C30         O165   1.265       .  A
C31          C46   1.563       .  S
C31         C106   1.559       .  S
C31         C129   1.555       .  S
C32          C62   1.551       .  S
C32         C253   1.571       .  S
C32         C260   1.543       .  S
C33          C59   1.564       .  S
C33          C99   1.579       .  S
C33         C374   1.559       .  S
C34          C48   1.553       .  S
C34          C96   1.585       .  S
C34         C364   1.545       .  S
O35          C45   1.268       .  A
O35          V43   1.934       .  S
O36          C46   1.274       .  A
O36          V43   1.920       .  S
O37          C47   1.271       .  A
O37          V43   1.898       .  S
O38          C48   1.266       .  A
O38          V43   1.910       .  S
O39          C48   1.269       .  A
O39          V44   1.895       .  S
O40          C47   1.265       .  A
O40          V44   1.916       .  S
O41          C46   1.271       .  A
O41          V44   1.940       .  S
O42          C45   1.278       .  A
O42          V44   1.929       .  S
V43          V44   2.073       .  T
C47          C63   1.561       .  S
O49          C59   1.268       .  A
O49          V57   1.915       .  S
O50         C636   1.266   1_455  A
O50          V57   1.901       .  S
O51         C637   1.269   1_455  A
O51          V57   1.930       .  S
O52          C62   1.270       .  A
O52          V57   1.896       .  S
O53          C62   1.265       .  A
O53         V634   1.924   1_455  S
O54          C61   1.265       .  A
O54          V58   1.891       .  S
O55          C60   1.271       .  A
O55          V58   1.920       .  S
O56          C59   1.270       .  A
O56         V634   1.913   1_455  S
V57         V634   2.070   1_455  T
V58         O629   1.924       .  S
V58         O632   1.913       .  S
V58         V633   2.070       .  T
C60          C64   1.564       .  S
C60         O626   1.266       .  A
C61         O627   1.269       .  A
C63          C66   1.592       .  S
C63          C79   1.545       .  S
C64          C69   1.578       .  S
C64         C665   1.565       .  S
C65          C66   1.423       .  A
C65          C70   1.408       .  A
C65          H72   1.080       .  S
C66          C67   1.404       .  A
C67          C68   1.404       .  A
C67          F74   1.344       .  S
C68          C69   1.410       .  A
C68          H73   1.071       .  S
C69          C70   1.418       .  A
C70          F71   1.356       .  S
C75          C76   1.388       .  A
C75          C80   1.379       .  A
C75          H82   1.077       .  S
C76         C322   1.545   1_545  S
C76         C365   1.436       .  A
C77         C364   1.436       .  A
C77         C366   1.381       .  A
C77          F84   1.357       .  S
C78          C79   1.390       .  A
C78         C365   1.381       .  A
C78          H83   1.077       .  S
C79          C80   1.437       .  A
C80          F81   1.357       .  S
C85          C86   1.423   1_655  A
C85         C666   1.394   1_565  A
C85         H668   1.081       .  S
C86         C321   1.559       .  S
C86          C87   1.404   1_565  A
C87          C88   1.391       .  A
C87         F382   1.355       .  S
C88          C89   1.424   1_455  A
C88          H93   1.080       .  S
C89         C640   1.565       .  S
C89         C666   1.405       .  A
C90         C661   1.394   1_545  A
C90         C665   1.405       .  A
C90          F91   1.355       .  S
H92         C661   1.081       .  S
F94         C375   1.355       .  S
C95          C96   1.421       .  A
C95         C100   1.405       .  A
C95         H102   1.078       .  S
C96          C97   1.411       .  A
C97          C98   1.404       .  A
C97         F104   1.350       .  S
C98          C99   1.418       .  A
C98         H103   1.079       .  S
C99         C100   1.413       .  A
C100        F101   1.354       .  S
C105        C106   1.417       .  A
C105        C110   1.404       .  A
C105        H112   1.077       .  S
C106        C107   1.410       .  A
C107        C108   1.376       .  A
C107        F114   1.357       .  S
C108        C109   1.405   1_554  A
C108        H113   1.077   1_554  S
C109        C176   1.571       .  S
C109        C110   1.421   1_556  A
C110        F111   1.358   1_554  S
C115        C260   1.414   1_655  A
C115        C264   1.385       .  A
C115        H122   1.077       .  S
C116        C176   1.543   1_554  S
C116        C117   1.407       .  A
C116        C259   1.414   1_454  A
C117        C118   1.387       .  A
C117        F124   1.354       .  S
C118        C119   1.419   1_455  A
C118        H123   1.074       .  S
C119        C578   1.557       .  S
C119        C120   1.413   1_554  A
C120        C259   1.385       .  A
C120        F841   1.354       .  S
F121        C840   1.354       .  S
C125        C126   1.391       .  A
C125        C130   1.388       .  A
C125        H132   1.061       .  S
C126        C145   1.548   1_554  S
C126        C127   1.394   1_554  A
C127        C128   1.388   1_556  A
C127        F278   1.340       .  S
C128        C129   1.393       .  A
C128        H133   1.059   1_554  S
C129        C130   1.397       .  A
C130        F131   1.339       .  S
F134        C271   1.340       .  S
C135        C280   1.397       .  A
C135        C284   1.381       .  A
C135        H142   1.083       .  S
C136        C145   1.543   1_554  S
C136        C137   1.411       .  A
C136        C279   1.397   1_554  A
C137        C138   1.396       .  A
C137        F144   1.354       .  S
C138        C139   1.422       .  A
C138        H143   1.083       .  S
C139        C140   1.426       .  A
C140        C279   1.381   1_554  A
C140        F141   1.345   1_554  S
C145        C160   1.582       .  S
C145        C189   1.565       .  S
C146        C173   1.558       .  S
C146        C205   1.564       .  S
C146        C839   1.557       .  S
C146        C283   1.582       .  S
O147        C157   1.267       .  A
O147        V299   1.915   1_556  S
O148        C158   1.264       .  A
O148        V155   1.882       .  S
O149        C159   1.268       .  A
O149        V443   1.930       .  S
O150        V155   1.921       .  S
O151        C160   1.267       .  A
O152        C159   1.271       .  A
O152        V444   1.910       .  S
O153        C158   1.267       .  A
O153        V156   1.919       .  S
O154        C445   1.266   1_545  A
V155        O291   1.915   1_545  S
V155        O437   1.930   1_545  S
V155        V156   2.070       .  T
V156        O440   1.910   1_545  S
C157        C178   1.543       .  S
C157        O442   1.266       .  A
C158        C207   1.545       .  S
C159        C175   1.586       .  S
O161        C171   1.274       .  A
O162        C172   1.267       .  A
O162       V1033   1.930   1_455  S
O163        C173   1.268       .  A
O163        V169   1.935       .  S
O164        C174   1.271   1_655  A
O164        V889   1.935   1_556  S
O165        V458   1.886       .  S
O166        C749   1.265   1_455  A
O166        V170   1.894       .  S
O167        C460   1.272   1_545  A
O167        V170   1.902       .  S
O168        C747   1.270   1_455  A
V169       O1026   1.930   1_545  S
V169        O884   1.935   1_545  S
V169        V746   2.055       .  T
V170        O453   1.886   1_545  S
V170        V745   2.055   1_455  T
C171        C208   1.567       .  S
C171        O744   1.270       .  A
C172        C177   1.543       .  S
C172        O455   1.272       .  A
C173        O742   1.265       .  A
C174        C176   1.569       .  S
C175        C190   1.563       .  S
C175        C250   1.559       .  S
C175        C273   1.555       .  S
C176        C206   1.551       .  S
C177        C203   1.564       .  S
C177        C518   1.559       .  S
C177        C243   1.579       .  S
C178        C192   1.553       .  S
C178        C508   1.545       .  S
C178        C240   1.585       .  S
O179        C189   1.268       .  A
O179        V187   1.934       .  S
O180        C190   1.274       .  A
O180        V187   1.920       .  S
O181        C191   1.271       .  A
O181        V187   1.898       .  S
O182        C192   1.266       .  A
O182        V187   1.910       .  S
O183        C192   1.269       .  A
O183        V188   1.895       .  S
O184        C191   1.265       .  A
O184        V188   1.916       .  S
O185        C190   1.271       .  A
O185        V188   1.940       .  S
O186        C189   1.277       .  A
O186        V188   1.929       .  S
V187        V188   2.073       .  T
C191        C207   1.561       .  S
O193        C203   1.268       .  A
O193        V201   1.915       .  S
O194        C780   1.266   1_455  A
O194        V201   1.901       .  S
O195        C781   1.270   1_455  A
O195        V201   1.930       .  S
O196        C206   1.270       .  A
O196        V201   1.896       .  S
O197        C206   1.265       .  A
O197        V778   1.923   1_455  S
O198        C205   1.265       .  A
O198        V202   1.891       .  S
O199        C204   1.271       .  A
O199        V202   1.920       .  S
O200        C203   1.270       .  A
O200        V778   1.913   1_455  S
V201        V778   2.070   1_455  T
V202        O773   1.923       .  S
V202        O776   1.913       .  S
V202        V777   2.070       .  T
C204        C208   1.564       .  S
C204        O770   1.266       .  A
C205        O771   1.270       .  A
C207        C210   1.592       .  S
C207        C223   1.545       .  S
C208        C213   1.578       .  S
C208        C809   1.565       .  S
C209        C210   1.423       .  A
C209        C214   1.408       .  A
C209        H216   1.080       .  S
C210        C211   1.404       .  A
C211        C212   1.404       .  A
C211        F218   1.344       .  S
C212        C213   1.410       .  A
C212        H217   1.071       .  S
C213        C214   1.418       .  A
C214        F215   1.356       .  S
C219        C220   1.388       .  A
C219        C224   1.379       .  A
C219        H226   1.078       .  S
C220        C466   1.545   1_545  S
C220        C509   1.436       .  A
C221        C508   1.436       .  A
C221        C510   1.381       .  A
C221        F228   1.357       .  S
C222        C509   1.381       .  A
C222        C223   1.390       .  A
C222        H227   1.077       .  S
C223        C224   1.437       .  A
C224        F225   1.357       .  S
C229        C230   1.423   1_655  A
C229        C810   1.394   1_565  A
C229        H812   1.081       .  S
C230        C465   1.559       .  S
C230        C231   1.404   1_565  A
C231        C232   1.391       .  A
C231        F526   1.355       .  S
C232        C233   1.425   1_455  A
C232        H237   1.080       .  S
C233        C784   1.565       .  S
C233        C810   1.405       .  A
C234        C805   1.394   1_545  A
C234        C809   1.405       .  A
C234        F235   1.355       .  S
H236        C805   1.081       .  S
F238        C519   1.355       .  S
C239        C240   1.421       .  A
C239        C244   1.405       .  A
C239        H246   1.079       .  S
C240        C241   1.411       .  A
C241        C242   1.404       .  A
C241        F248   1.350       .  S
C242        C243   1.418       .  A
C242        H247   1.080       .  S
C243        C244   1.413       .  A
C244        F245   1.354       .  S
C249        C250   1.417       .  A
C249        C254   1.404       .  A
C249        H256   1.077       .  S
C250        C251   1.410       .  A
C251        C252   1.376       .  A
C251        F258   1.357       .  S
C252        C253   1.405       .  A
C252        H257   1.077       .  S
C253        C254   1.422       .  A
C254        F255   1.358       .  S
C259        H266   1.077       .  S
C260        C261   1.407       .  A
C261        C262   1.387       .  A
C261        F268   1.354       .  S
C262        C263   1.419   1_455  A
C262        H267   1.074       .  S
C263        C722   1.557       .  S
C263        C264   1.413       .  A
C264        F697   1.354       .  S
F265        C696   1.354       .  S
C269        C270   1.391       .  A
C269        C274   1.388       .  A
C269        H276   1.061       .  S
C270        C271   1.394       .  A
C271        C272   1.388       .  A
C272        C273   1.393       .  A
C272        H277   1.058       .  S
C273        C274   1.396       .  A
C274        F275   1.339       .  S
C279        H286   1.083       .  S
C280        C281   1.411       .  A
C281        C282   1.396       .  A
C281        F288   1.354       .  S
C282        C283   1.422       .  A
C282        H287   1.083       .  S
C283        C284   1.426       .  A
C284        F285   1.345       .  S
C289        C304   1.583       .  S
C289        C333   1.565       .  S
C289        C558   1.548       .  S
C289        C568   1.543       .  S
C290        C317   1.558       .  S
C290        C349   1.563       .  S
C290        C983   1.557       .  S
C290        C427   1.581       .  S
O291        C301   1.266       .  A
O292        C302   1.264       .  A
O292        V299   1.882       .  S
O293        C303   1.268       .  A
O294        C448   1.277   1_554  A
O294        V299   1.921       .  S
O295        C304   1.267       .  A
O295        V444   1.923       .  S
O296        C303   1.271       .  A
O297        C302   1.267       .  A
O297        V300   1.919       .  S
O298        V444   1.892       .  S
V299        V300   2.070       .  T
V300        O439   1.923   1_554  S
V300        O442   1.892   1_554  S
C301        C322   1.543       .  S
C302        C351   1.545       .  S
C303        C319   1.586       .  S
C304        O438   1.277       .  A
O305        C315   1.274       .  A
O305        V457   1.925       .  S
O306        C316   1.267       .  A
O306        V601   1.930   1_465  S
O307        C317   1.268       .  A
O307        V313   1.935       .  S
O308        C318   1.271   1_655  A
O308        V745   1.935   1_565  S
O309        C462   1.265   1_554  A
O310        C893   1.265   1_455  A
O310        V314   1.894       .  S
O311        V314   1.902       .  S
O312        C891   1.270   1_455  A
O312        V458   1.925       .  S
V313        O449   1.925   1_554  S
V313        O594   1.930       .  S
V313        O740   1.935   1_554  S
V313        V890   2.055       .  T
V314        O456   1.925   1_554  S
V314        V889   2.055   1_455  T
C315        C352   1.566       .  S
C315        O888   1.270       .  A
C316        C321   1.543       .  S
C317        O886   1.265       .  A
C318        C320   1.569       .  S
C318        O453   1.265       .  A
C319        C334   1.563       .  S
C319        C394   1.559       .  S
C319        C417   1.555       .  S
C320        C350   1.551       .  S
C320        C541   1.571       .  S
C320        C548   1.543       .  S
C321        C347   1.564       .  S
C321        C387   1.579       .  S
C322        C336   1.553       .  S
C322        C384   1.585       .  S
O323        C333   1.268       .  A
O323        V331   1.934       .  S
O324        C334   1.274       .  A
O324        V331   1.920       .  S
O325        C335   1.271       .  A
O325        V331   1.898       .  S
O326        C336   1.266       .  A
O326        V331   1.910       .  S
O327        C336   1.269       .  A
O327        V332   1.895       .  S
O328        C335   1.265       .  A
O328        V332   1.916       .  S
O329        C334   1.271       .  A
O329        V332   1.940       .  S
O330        C333   1.278       .  A
O330        V332   1.929       .  S
V331        V332   2.073       .  T
C335        C351   1.561       .  S
O337        C347   1.268       .  A
O337        V345   1.915       .  S
O338        C924   1.266   1_455  A
O338        V345   1.901       .  S
O339        C925   1.269   1_455  A
O339        V345   1.930       .  S
O340        C350   1.270       .  A
O340        V345   1.896       .  S
O341        C350   1.265       .  A
O341        V922   1.924   1_455  S
O342        C349   1.265       .  A
O342        V346   1.891       .  S
O343        C348   1.271       .  A
O343        V346   1.920       .  S
O344        C347   1.270       .  A
O344        V922   1.913   1_455  S
V345        V922   2.070   1_455  T
V346        O917   1.924       .  S
V346        O920   1.913       .  S
V346        V921   2.070       .  T
C348        C352   1.564       .  S
C348        O914   1.266       .  A
C349        O915   1.269       .  A
C351        C354   1.592       .  S
C351        C367   1.545       .  S
C352        C357   1.578       .  S
C352        C953   1.565       .  S
C353        C354   1.423       .  A
C353        C358   1.408       .  A
C353        H360   1.080       .  S
C354        C355   1.404       .  A
C355        C356   1.404       .  A
C355        F362   1.344       .  S
C356        C357   1.410       .  A
C356        H361   1.071       .  S
C357        C358   1.418       .  A
C358        F359   1.356       .  S
C363        C364   1.388       .  A
C363        C368   1.379       .  A
C363        H370   1.077       .  S
C365        F372   1.357   1_545  S
C366        C367   1.390       .  A
C366        H371   1.077       .  S
C367        C368   1.437       .  A
C368        F369   1.357       .  S
C373        C374   1.423   1_655  A
C373        C954   1.394       .  A
C373        H956   1.081       .  S
C374        C375   1.404       .  A
C375        C376   1.391       .  A
C376        C377   1.424   1_455  A
C376        H381   1.080       .  S
C377        C928   1.565       .  S
C377        C954   1.405       .  A
C378        C949   1.394       .  A
C378        C953   1.405       .  A
C378        F379   1.355       .  S
H380        C949   1.081       .  S
C383        C384   1.421       .  A
C383        C388   1.405       .  A
C383        H390   1.078       .  S
C384        C385   1.411       .  A
C385        C386   1.404       .  A
C385        F392   1.351       .  S
C386        C387   1.418       .  A
C386        H391   1.079       .  S
C387        C388   1.413       .  A
C388        F389   1.354       .  S
C393        C394   1.417       .  A
C393        C398   1.404       .  A
C393        H400   1.077       .  S
C394        C395   1.410       .  A
C395        C396   1.376       .  A
C395        F402   1.357       .  S
C396        C397   1.405   1_554  A
C396        H401   1.077   1_554  S
C397        C464   1.571       .  S
C397        C398   1.421   1_556  A
C398        F399   1.358   1_554  S
C403        C548   1.414   1_655  A
C403        C552   1.385       .  A
C403        H410   1.077       .  S
C404        C464   1.543   1_554  S
C404        C547   1.414   1_454  A
C404        C405   1.407       .  A
C405        C406   1.387       .  A
C405        F412   1.354       .  S
C406        C407   1.419   1_455  A
C406        H411   1.074       .  S
C407        C866   1.557       .  S
C407        C408   1.413   1_554  A
C408        C547   1.385       .  A
C408       F1129   1.354       .  S
F409       C1128   1.354       .  S
C413        C414   1.391       .  A
C413        C418   1.388       .  A
C413        H420   1.061       .  S
C414        C433   1.548   1_554  S
C414        C415   1.394   1_554  A
C415        C416   1.388   1_556  A
C415        F566   1.340       .  S
C416        C417   1.393       .  A
C416        H421   1.059   1_554  S
C417        C418   1.397       .  A
C418        F419   1.339       .  S
F422        C559   1.340       .  S
C423        C568   1.397       .  A
C423        C572   1.381       .  A
C423        H430   1.083       .  S
C424        C433   1.543   1_554  S
C424        C567   1.397   1_554  A
C424        C425   1.411       .  A
C425        C426   1.396       .  A
C425        F432   1.354       .  S
C426        C427   1.422       .  A
C426        H431   1.083       .  S
C427        C428   1.426       .  A
C428        C567   1.381   1_554  A
C428        F429   1.345   1_554  S
C433        C448   1.582       .  S
C433        C477   1.565       .  S
C434        C461   1.558       .  S
C434        C493   1.564       .  S
C434       C1127   1.557       .  S
C434        C571   1.582       .  S
O435        C445   1.267       .  A
O436        C446   1.264       .  A
O436        V443   1.882       .  S
O437        C447   1.268       .  A
O438        V443   1.921       .  S
O439        C448   1.267       .  A
O440        C447   1.271       .  A
O441        C446   1.267       .  A
O441        V444   1.919       .  S
V443        V444   2.070       .  T
C445        C466   1.543       .  S
C446        C495   1.545       .  S
C447        C463   1.586       .  S
O449        C459   1.274       .  A
O450        C460   1.267       .  A
O450        V745   1.930   1_465  S
O451        C461   1.268       .  A
O451        V457   1.935       .  S
O452        C462   1.271   1_655  A
O452        V601   1.935   1_566  S
O454       C1037   1.265   1_455  A
O454        V458   1.894       .  S
O455        V458   1.902       .  S
O456       C1035   1.270   1_455  A
V457        O738   1.930       .  S
V457        O596   1.935       .  S
V457       V1034   2.055       .  T
V458       V1033   2.055   1_455  T
C459        C496   1.567       .  S
C459       O1032   1.270       .  A
C460        C465   1.543       .  S
C461       O1030   1.265       .  A
C462        C464   1.569       .  S
C463        C478   1.563       .  S
C463        C538   1.559       .  S
C463        C561   1.555       .  S
C464        C494   1.551       .  S
C465        C491   1.564       .  S
C465        C531   1.579       .  S
C466        C480   1.553       .  S
C466        C528   1.585       .  S
O467        C477   1.268       .  A
O467        V475   1.934       .  S
O468        C478   1.274       .  A
O468        V475   1.920       .  S
O469        C479   1.271       .  A
O469        V475   1.898       .  S
O470        C480   1.266       .  A
O470        V475   1.910       .  S
O471        C480   1.269       .  A
O471        V476   1.895       .  S
O472        C479   1.265       .  A
O472        V476   1.916       .  S
O473        C478   1.271       .  A
O473        V476   1.940       .  S
O474        C477   1.277       .  A
O474        V476   1.929       .  S
V475        V476   2.073       .  T
C479        C495   1.561       .  S
O481        C491   1.268       .  A
O481        V489   1.915       .  S
O482       C1068   1.266   1_455  A
O482        V489   1.901       .  S
O483       C1069   1.270   1_455  A
O483        V489   1.930       .  S
O484        C494   1.270       .  A
O484        V489   1.896       .  S
O485        C494   1.265       .  A
O485       V1066   1.923   1_455  S
O486        C493   1.265       .  A
O486        V490   1.891       .  S
O487        C492   1.271       .  A
O487        V490   1.920       .  S
O488        C491   1.270       .  A
O488       V1066   1.913   1_455  S
V489       V1066   2.070   1_455  T
V490       O1061   1.923       .  S
V490       O1064   1.913       .  S
V490       V1065   2.070       .  T
C492        C496   1.564       .  S
C492       O1058   1.266       .  A
C493       O1059   1.270       .  A
C495        C498   1.592       .  S
C495        C511   1.545       .  S
C496        C501   1.578       .  S
C496       C1097   1.565       .  S
C497        C498   1.423       .  A
C497        C502   1.408       .  A
C497        H504   1.080       .  S
C498        C499   1.404       .  A
C499        C500   1.404       .  A
C499        F506   1.344       .  S
C500        C501   1.410       .  A
C500        H505   1.071       .  S
C501        C502   1.418       .  A
C502        F503   1.356       .  S
C507        C508   1.388       .  A
C507        C512   1.379       .  A
C507        H514   1.077       .  S
C509        F516   1.357   1_545  S
C510        C511   1.390       .  A
C510        H515   1.077       .  S
C511        C512   1.437       .  A
C512        F513   1.357       .  S
C517        C518   1.423   1_655  A
C517       C1098   1.394       .  A
C517       H1100   1.081       .  S
C518        C519   1.404       .  A
C519        C520   1.391       .  A
C520        C521   1.425   1_455  A
C520        H525   1.080       .  S
C521       C1072   1.565       .  S
C521       C1098   1.405       .  A
C522       C1093   1.394       .  A
C522       C1097   1.405       .  A
C522        F523   1.355       .  S
H524       C1093   1.081       .  S
C527        C528   1.421       .  A
C527        C532   1.405       .  A
C527        H534   1.079       .  S
C528        C529   1.411       .  A
C529        C530   1.404       .  A
C529        F536   1.350       .  S
C530        C531   1.418       .  A
C530        H535   1.080       .  S
C531        C532   1.413       .  A
C532        F533   1.354       .  S
C537        C538   1.417       .  A
C537        C542   1.404       .  A
C537        H544   1.077       .  S
C538        C539   1.410       .  A
C539        C540   1.376       .  A
C539        F546   1.357       .  S
C540        C541   1.405       .  A
C540        H545   1.077       .  S
C541        C542   1.421       .  A
C542        F543   1.358       .  S
C547        H554   1.077       .  S
C548        C549   1.407       .  A
C549        C550   1.387       .  A
C549        F556   1.354       .  S
C550        C551   1.419   1_455  A
C550        H555   1.074       .  S
C551       C1010   1.557       .  S
C551        C552   1.413       .  A
C552        F985   1.354       .  S
F553        C984   1.354       .  S
C557        C558   1.391       .  A
C557        C562   1.388       .  A
C557        H564   1.061       .  S
C558        C559   1.394       .  A
C559        C560   1.388       .  A
C560        C561   1.393       .  A
C560        H565   1.058       .  S
C561        C562   1.396       .  A
C562        F563   1.339       .  S
C567        H574   1.083       .  S
C568        C569   1.411       .  A
C569        C570   1.396       .  A
C569        F576   1.354       .  S
C570        C571   1.422       .  A
C570        H575   1.083       .  S
C571        C572   1.426       .  A
C572        F573   1.345       .  S
C577        C592   1.583       .  S
C577        C621   1.565       .  S
C577        C846   1.548       .  S
C577        C856   1.543       .  S
C578        C605   1.558       .  S
C578        C637   1.563       .  S
C578        C715   1.581       .  S
O579        C589   1.266       .  A
O579       V1019   1.915       .  S
O580        C590   1.264       .  A
O580        V587   1.882       .  S
O581        C591   1.268       .  A
O581        V875   1.930       .  S
O582        C736   1.277   1_554  A
O582        V587   1.921       .  S
O583        C592   1.267       .  A
O583        V732   1.923       .  S
O584        C591   1.271       .  A
O584        V876   1.909       .  S
O585        C590   1.267       .  A
O585        V588   1.919       .  S
O586        C877   1.266   1_545  A
O586        V732   1.892       .  S
V587       O1011   1.915   1_544  S
V587        O869   1.930   1_545  S
V587        V588   2.070       .  T
V588        O727   1.923   1_554  S
V588        O872   1.909   1_545  S
V588        O730   1.892   1_554  S
C589        C610   1.543       .  S
C589        O874   1.266       .  A
C590        C639   1.545       .  S
C591        C607   1.586       .  S
C592        O726   1.277       .  A
O593        C603   1.274       .  A
O593        V745   1.925       .  S
O594        C604   1.267       .  A
O595        C605   1.268       .  A
O595        V601   1.935       .  S
O596        C606   1.271       .  A
O597        C750   1.265   1_554  A
O597        V890   1.885       .  S
O598        V602   1.894       .  S
O599        C892   1.272   1_545  A
O599        V602   1.902       .  S
O600        V746   1.925       .  S
V601        O737   1.925   1_554  S
V602        O885   1.885   1_545  S
V602        O744   1.925   1_554  S
C603        C640   1.566       .  S
C604        C609   1.543       .  S
C604        O887   1.272       .  A
C606        C608   1.569       .  S
C606        O741   1.265       .  A
C607        C622   1.563       .  S
C607        C682   1.559       .  S
C607        C705   1.555       .  S
C608        C638   1.551       .  S
C608        C829   1.571       .  S
C608        C836   1.543       .  S
C609        C635   1.564       .  S
C609        C950   1.559       .  S
C609        C675   1.579       .  S
C610        C624   1.553       .  S
C610        C940   1.545       .  S
C610        C672   1.585       .  S
O611        C621   1.268       .  A
O611        V619   1.934       .  S
O612        C622   1.274       .  A
O612        V619   1.920       .  S
O613        C623   1.271       .  A
O613        V619   1.898       .  S
O614        C624   1.266       .  A
O614        V619   1.910       .  S
O615        C624   1.269       .  A
O615        V620   1.895       .  S
O616        C623   1.265       .  A
O616        V620   1.916       .  S
O617        C622   1.271       .  A
O617        V620   1.940       .  S
O618        C621   1.278       .  A
O618        V620   1.929       .  S
V619        V620   2.073       .  T
C623        C639   1.561       .  S
O625        C635   1.268       .  A
O625        V633   1.915       .  S
O626        V633   1.901       .  S
O627        V633   1.930       .  S
O628        C638   1.270       .  A
O628        V633   1.896       .  S
O629        C638   1.265       .  A
O630        C637   1.265       .  A
O630        V634   1.891       .  S
O631        C636   1.271       .  A
O631        V634   1.920       .  S
O632        C635   1.270       .  A
C636        C640   1.564       .  S
C639        C642   1.592       .  S
C639        C655   1.545       .  S
C640        C645   1.578       .  S
C641        C642   1.423       .  A
C641        C646   1.408       .  A
C641        H648   1.080       .  S
C642        C643   1.404       .  A
C643        C644   1.404       .  A
C643        F650   1.344       .  S
C644        C645   1.410       .  A
C644        H649   1.071       .  S
C645        C646   1.418       .  A
C646        F647   1.356       .  S
C651        C652   1.388       .  A
C651        C656   1.379       .  A
C651        H658   1.077       .  S
C652        C898   1.545   1_545  S
C652        C941   1.436       .  A
C653        C940   1.436       .  A
C653        C942   1.381       .  A
C653        F660   1.357       .  S
C654        C941   1.381       .  A
C654        C655   1.390       .  A
C654        H659   1.077       .  S
C655        C656   1.437       .  A
C656        F657   1.357       .  S
C661        C662   1.423       .  A
C662        C897   1.559       .  S
C662        C663   1.404   1_565  A
C663        C664   1.391       .  A
C663        F958   1.355       .  S
C664        C665   1.424       .  A
C664        H669   1.080       .  S
C666        F667   1.355       .  S
F670        C951   1.355       .  S
C671        C672   1.421       .  A
C671        C676   1.405       .  A
C671        H678   1.078       .  S
C672        C673   1.411       .  A
C673        C674   1.404       .  A
C673        F680   1.351       .  S
C674        C675   1.418       .  A
C674        H679   1.079       .  S
C675        C676   1.413       .  A
C676        F677   1.354       .  S
C681        C682   1.417       .  A
C681        C686   1.404       .  A
C681        H688   1.077       .  S
C682        C683   1.410       .  A
C683        C684   1.376       .  A
C683        F690   1.357       .  S
C684        C685   1.405   1_554  A
C684        H689   1.077   1_554  S
C685        C752   1.571       .  S
C685        C686   1.421   1_556  A
C686        F687   1.358   1_554  S
C691        C836   1.414       .  A
C691        C840   1.385       .  A
C691        H698   1.077       .  S
C692        C752   1.543   1_554  S
C692        C835   1.414   1_554  A
C692        C693   1.407       .  A
C693        C694   1.387       .  A
C693        F700   1.354       .  S
C694        C695   1.419       .  A
C694        H699   1.074       .  S
C695        C696   1.413   1_554  A
C696        C835   1.385       .  A
C701        C702   1.391       .  A
C701        C706   1.388       .  A
C701        H708   1.061       .  S
C702        C721   1.548   1_554  S
C702        C703   1.394   1_554  A
C703        C704   1.388   1_556  A
C703        F854   1.340       .  S
C704        C705   1.393       .  A
C704        H709   1.059   1_554  S
C705        C706   1.397       .  A
C706        F707   1.339       .  S
F710        C847   1.340       .  S
C711        C856   1.397       .  A
C711        C860   1.381       .  A
C711        H718   1.083       .  S
C712        C721   1.543   1_554  S
C712        C855   1.397   1_554  A
C712        C713   1.411       .  A
C713        C714   1.396       .  A
C713        F720   1.354       .  S
C714        C715   1.422       .  A
C714        H719   1.083       .  S
C715        C716   1.426       .  A
C716        C855   1.381   1_554  A
C716        F717   1.345   1_554  S
C721        C736   1.582       .  S
C721        C765   1.565       .  S
C722        C749   1.558       .  S
C722        C781   1.564       .  S
C722        C859   1.582       .  S
O723        C733   1.267       .  A
O723        V875   1.915   1_556  S
O724        C734   1.264       .  A
O724        V731   1.882       .  S
O725        C735   1.268       .  A
O725       V1019   1.930       .  S
O726        V731   1.921       .  S
O727        C736   1.267       .  A
O728        C735   1.271       .  A
O728       V1020   1.910       .  S
O729        C734   1.267       .  A
O729        V732   1.919       .  S
O730       C1021   1.266   1_545  A
V731        O867   1.915   1_545  S
V731       O1013   1.930   1_545  S
V731        V732   2.070       .  T
V732       O1016   1.910   1_545  S
C733        C754   1.543       .  S
C733       O1018   1.266       .  A
C734        C783   1.545       .  S
C735        C751   1.586       .  S
O737        C747   1.274       .  A
O738        C748   1.267       .  A
O739        C749   1.268       .  A
O739        V745   1.935       .  S
O740        C750   1.271       .  A
O741       V1034   1.886       .  S
O742        V746   1.894       .  S
O743       C1036   1.272   1_545  A
O743        V746   1.902       .  S
V746       O1029   1.886   1_545  S
C747        C784   1.567       .  S
C748        C753   1.543       .  S
C748       O1031   1.272       .  A
C750        C752   1.569       .  S
C751        C766   1.563       .  S
C751        C826   1.559       .  S
C751        C849   1.555       .  S
C752        C782   1.551       .  S
C753        C779   1.564       .  S
C753       C1094   1.559       .  S
C753        C819   1.579       .  S
C754        C768   1.553       .  S
C754       C1084   1.545       .  S
C754        C816   1.585       .  S
O755        C765   1.268       .  A
O755        V763   1.934       .  S
O756        C766   1.274       .  A
O756        V763   1.920       .  S
O757        C767   1.271       .  A
O757        V763   1.898       .  S
O758        C768   1.266       .  A
O758        V763   1.910       .  S
O759        C768   1.269       .  A
O759        V764   1.895       .  S
O760        C767   1.265       .  A
O760        V764   1.916       .  S
O761        C766   1.271       .  A
O761        V764   1.940       .  S
O762        C765   1.277       .  A
O762        V764   1.929       .  S
V763        V764   2.073       .  T
C767        C783   1.561       .  S
O769        C779   1.268       .  A
O769        V777   1.915       .  S
O770        V777   1.901       .  S
O771        V777   1.930       .  S
O772        C782   1.270       .  A
O772        V777   1.896       .  S
O773        C782   1.265       .  A
O774        C781   1.265       .  A
O774        V778   1.891       .  S
O775        C780   1.271       .  A
O775        V778   1.920       .  S
O776        C779   1.270       .  A
C780        C784   1.564       .  S
C783        C786   1.592       .  S
C783        C799   1.545       .  S
C784        C789   1.578       .  S
C785        C786   1.423       .  A
C785        C790   1.408       .  A
C785        H792   1.080       .  S
C786        C787   1.404       .  A
C787        C788   1.404       .  A
C787        F794   1.344       .  S
C788        C789   1.410       .  A
C788        H793   1.071       .  S
C789        C790   1.418       .  A
C790        F791   1.356       .  S
C795        C796   1.388       .  A
C795        C800   1.379       .  A
C795        H802   1.077       .  S
C796       C1042   1.545   1_545  S
C796       C1085   1.436       .  A
C797       C1084   1.436       .  A
C797       C1086   1.381       .  A
C797        F804   1.357       .  S
C798       C1085   1.381       .  A
C798        C799   1.390       .  A
C798        H803   1.077       .  S
C799        C800   1.437       .  A
C800        F801   1.357       .  S
C805        C806   1.423       .  A
C806       C1041   1.559       .  S
C806        C807   1.404   1_565  A
C807        C808   1.391       .  A
C807       F1102   1.355       .  S
C808        C809   1.425       .  A
C808        H813   1.080       .  S
C810        F811   1.355       .  S
F814       C1095   1.355       .  S
C815        C816   1.421       .  A
C815        C820   1.405       .  A
C815        H822   1.079       .  S
C816        C817   1.411       .  A
C817        C818   1.404       .  A
C817        F824   1.350       .  S
C818        C819   1.418       .  A
C818        H823   1.080       .  S
C819        C820   1.413       .  A
C820        F821   1.354       .  S
C825        C826   1.417       .  A
C825        C830   1.404       .  A
C825        H832   1.077       .  S
C826        C827   1.410       .  A
C827        C828   1.376       .  A
C827        F834   1.357       .  S
C828        C829   1.405       .  A
C828        H833   1.077       .  S
C829        C830   1.422       .  A
C830        F831   1.358       .  S
C835        H842   1.077       .  S
C836        C837   1.407       .  A
C837        C838   1.387       .  A
C837        F844   1.354       .  S
C838        C839   1.419       .  A
C838        H843   1.074       .  S
C839        C840   1.413       .  A
C845        C846   1.391       .  A
C845        C850   1.388       .  A
C845        H852   1.061       .  S
C846        C847   1.394       .  A
C847        C848   1.388       .  A
C848        C849   1.393       .  A
C848        H853   1.058       .  S
C849        C850   1.396       .  A
C850        F851   1.339       .  S
C855        H862   1.083       .  S
C856        C857   1.411       .  A
C857        C858   1.396       .  A
C857        F864   1.354       .  S
C858        C859   1.422       .  A
C858        H863   1.083       .  S
C859        C860   1.426       .  A
C860        F861   1.345       .  S
C865        C880   1.583       .  S
C865        C909   1.565       .  S
C865       C1134   1.548       .  S
C865       C1144   1.543       .  S
C866        C893   1.558       .  S
C866        C925   1.563       .  S
C866       C1003   1.581       .  S
O867        C877   1.266       .  A
O868        C878   1.264       .  A
O868        V875   1.882       .  S
O869        C879   1.268       .  A
O870       C1024   1.277   1_554  A
O870        V875   1.921       .  S
O871        C880   1.267       .  A
O871       V1020   1.923       .  S
O872        C879   1.271       .  A
O873        C878   1.267       .  A
O873        V876   1.919       .  S
O874       V1020   1.892       .  S
V875        V876   2.070       .  T
V876       O1015   1.923   1_554  S
V876       O1018   1.892   1_554  S
C877        C898   1.543       .  S
C878        C927   1.545       .  S
C879        C895   1.586       .  S
C880       O1014   1.277       .  A
O881        C891   1.274       .  A
O881       V1033   1.925       .  S
O882        C892   1.267       .  A
O883        C893   1.268       .  A
O883        V889   1.935       .  S
O884        C894   1.271       .  A
O885       C1038   1.265   1_554  A
O886        V890   1.894       .  S
O887        V890   1.902       .  S
O888       V1034   1.925       .  S
V889       O1025   1.925   1_554  S
V890       O1032   1.925   1_554  S
C891        C928   1.566       .  S
C892        C897   1.543       .  S
C894        C896   1.569       .  S
C894       O1029   1.265       .  A
C895        C910   1.563       .  S
C895        C970   1.559       .  S
C895        C993   1.555       .  S
C896        C926   1.551       .  S
C896       C1117   1.571       .  S
C896       C1124   1.543       .  S
C897        C923   1.564       .  S
C897        C963   1.579       .  S
C898        C912   1.553       .  S
C898        C960   1.585       .  S
O899        C909   1.268       .  A
O899        V907   1.934       .  S
O900        C910   1.274       .  A
O900        V907   1.920       .  S
O901        C911   1.271       .  A
O901        V907   1.898       .  S
O902        C912   1.266       .  A
O902        V907   1.910       .  S
O903        C912   1.269       .  A
O903        V908   1.895       .  S
O904        C911   1.265       .  A
O904        V908   1.916       .  S
O905        C910   1.271       .  A
O905        V908   1.940       .  S
O906        C909   1.278       .  A
O906        V908   1.929       .  S
V907        V908   2.073       .  T
C911        C927   1.561       .  S
O913        C923   1.268       .  A
O913        V921   1.915       .  S
O914        V921   1.901       .  S
O915        V921   1.930       .  S
O916        C926   1.270       .  A
O916        V921   1.896       .  S
O917        C926   1.265       .  A
O918        C925   1.265       .  A
O918        V922   1.891       .  S
O919        C924   1.271       .  A
O919        V922   1.920       .  S
O920        C923   1.270       .  A
C924        C928   1.564       .  S
C927        C930   1.592       .  S
C927        C943   1.545       .  S
C928        C933   1.578       .  S
C929        C930   1.423       .  A
C929        C934   1.408       .  A
C929        H936   1.080       .  S
C930        C931   1.404       .  A
C931        C932   1.404       .  A
C931        F938   1.344       .  S
C932        C933   1.410       .  A
C932        H937   1.071       .  S
C933        C934   1.418       .  A
C934        F935   1.356       .  S
C939        C940   1.388       .  A
C939        C944   1.379       .  A
C939        H946   1.077       .  S
C941        F948   1.357   1_545  S
C942        C943   1.390       .  A
C942        H947   1.077       .  S
C943        C944   1.437       .  A
C944        F945   1.357       .  S
C949        C950   1.423       .  A
C950        C951   1.404       .  A
C951        C952   1.391       .  A
C952        C953   1.424       .  A
C952        H957   1.080       .  S
C954        F955   1.355       .  S
C959        C960   1.421       .  A
C959        C964   1.405       .  A
C959        H966   1.078       .  S
C960        C961   1.411       .  A
C961        C962   1.404       .  A
C961        F968   1.350       .  S
C962        C963   1.418       .  A
C962        H967   1.079       .  S
C963        C964   1.413       .  A
C964        F965   1.354       .  S
C969        C970   1.417       .  A
C969        C974   1.404       .  A
C969        H976   1.077       .  S
C970        C971   1.410       .  A
C971        C972   1.376       .  A
C971        F978   1.357       .  S
C972        C973   1.405   1_554  A
C972        H977   1.077   1_554  S
C973       C1040   1.571       .  S
C973        C974   1.421   1_556  A
C974        F975   1.358   1_554  S
C979       C1124   1.414       .  A
C979       C1128   1.385       .  A
C979        H986   1.077       .  S
C980       C1040   1.543   1_554  S
C980       C1123   1.414   1_554  A
C980        C981   1.407       .  A
C981        C982   1.387       .  A
C981        F988   1.354       .  S
C982        C983   1.419       .  A
C982        H987   1.074       .  S
C983        C984   1.413   1_554  A
C984       C1123   1.385       .  A
C989        C990   1.391       .  A
C989        C994   1.388       .  A
C989        H996   1.061       .  S
C990       C1009   1.548   1_554  S
C990        C991   1.394   1_554  A
C991        C992   1.388   1_556  A
C991       F1142   1.340       .  S
C992        C993   1.393       .  A
C992        H997   1.059   1_554  S
C993        C994   1.397       .  A
C994        F995   1.339       .  S
F998       C1135   1.340       .  S
C999       C1144   1.397       .  A
C999       C1148   1.381       .  A
C999       H1006   1.083       .  S
C1000      C1009   1.543   1_554  S
C1000      C1143   1.397   1_554  A
C1000      C1001   1.411       .  A
C1001      C1002   1.396       .  A
C1001      F1008   1.354       .  S
C1002      C1003   1.422       .  A
C1002      H1007   1.083       .  S
C1003      C1004   1.426       .  A
C1004      C1143   1.381   1_554  A
C1004      F1005   1.345   1_554  S
C1009      C1024   1.582       .  S
C1009      C1053   1.565       .  S
C1010      C1037   1.558       .  S
C1010      C1069   1.564       .  S
C1010      C1147   1.582       .  S
O1011      C1021   1.267       .  A
O1012      C1022   1.264       .  A
O1012      V1019   1.882       .  S
O1013      C1023   1.268       .  A
O1014      V1019   1.921       .  S
O1015      C1024   1.267       .  A
O1016      C1023   1.271       .  A
O1017      C1022   1.267       .  A
O1017      V1020   1.919       .  S
V1019      V1020   2.070       .  T
C1021      C1042   1.543       .  S
C1022      C1071   1.545       .  S
C1023      C1039   1.586       .  S
O1025      C1035   1.274       .  A
O1026      C1036   1.267       .  A
O1027      C1037   1.268       .  A
O1027      V1033   1.935       .  S
O1028      C1038   1.271       .  A
O1030      V1034   1.894       .  S
O1031      V1034   1.902       .  S
C1035      C1072   1.567       .  S
C1036      C1041   1.543       .  S
C1038      C1040   1.569       .  S
C1039      C1054   1.563       .  S
C1039      C1114   1.559       .  S
C1039      C1137   1.555       .  S
C1040      C1070   1.551       .  S
C1041      C1067   1.564       .  S
C1041      C1107   1.579       .  S
C1042      C1056   1.553       .  S
C1042      C1104   1.585       .  S
O1043      C1053   1.268       .  A
O1043      V1051   1.934       .  S
O1044      C1054   1.274       .  A
O1044      V1051   1.920       .  S
O1045      C1055   1.271       .  A
O1045      V1051   1.898       .  S
O1046      C1056   1.266       .  A
O1046      V1051   1.910       .  S
O1047      C1056   1.269       .  A
O1047      V1052   1.895       .  S
O1048      C1055   1.265       .  A
O1048      V1052   1.916       .  S
O1049      C1054   1.271       .  A
O1049      V1052   1.940       .  S
O1050      C1053   1.277       .  A
O1050      V1052   1.929       .  S
V1051      V1052   2.073       .  T
C1055      C1071   1.561       .  S
O1057      C1067   1.268       .  A
O1057      V1065   1.915       .  S
O1058      V1065   1.901       .  S
O1059      V1065   1.930       .  S
O1060      C1070   1.270       .  A
O1060      V1065   1.896       .  S
O1061      C1070   1.265       .  A
O1062      C1069   1.265       .  A
O1062      V1066   1.891       .  S
O1063      C1068   1.271       .  A
O1063      V1066   1.920       .  S
O1064      C1067   1.270       .  A
C1068      C1072   1.564       .  S
C1071      C1074   1.592       .  S
C1071      C1087   1.545       .  S
C1072      C1077   1.578       .  S
C1073      C1074   1.423       .  A
C1073      C1078   1.408       .  A
C1073      H1080   1.080       .  S
C1074      C1075   1.404       .  A
C1075      C1076   1.404       .  A
C1075      F1082   1.344       .  S
C1076      C1077   1.410       .  A
C1076      H1081   1.071       .  S
C1077      C1078   1.418       .  A
C1078      F1079   1.356       .  S
C1083      C1084   1.388       .  A
C1083      C1088   1.379       .  A
C1083      H1090   1.077       .  S
C1085      F1092   1.357   1_545  S
C1086      C1087   1.390       .  A
C1086      H1091   1.077       .  S
C1087      C1088   1.437       .  A
C1088      F1089   1.357       .  S
C1093      C1094   1.423       .  A
C1094      C1095   1.404       .  A
C1095      C1096   1.391       .  A
C1096      C1097   1.425       .  A
C1096      H1101   1.080       .  S
C1098      F1099   1.355       .  S
C1103      C1104   1.421       .  A
C1103      C1108   1.405       .  A
C1103      H1110   1.079       .  S
C1104      C1105   1.411       .  A
C1105      C1106   1.404       .  A
C1105      F1112   1.350       .  S
C1106      C1107   1.418       .  A
C1106      H1111   1.080       .  S
C1107      C1108   1.413       .  A
C1108      F1109   1.354       .  S
C1113      C1114   1.417       .  A
C1113      C1118   1.404       .  A
C1113      H1120   1.077       .  S
C1114      C1115   1.410       .  A
C1115      C1116   1.376       .  A
C1115      F1122   1.357       .  S
C1116      C1117   1.405       .  A
C1116      H1121   1.077       .  S
C1117      C1118   1.421       .  A
C1118      F1119   1.358       .  S
C1123      H1130   1.077       .  S
C1124      C1125   1.407       .  A
C1125      C1126   1.387       .  A
C1125      F1132   1.354       .  S
C1126      C1127   1.419       .  A
C1126      H1131   1.074       .  S
C1127      C1128   1.413       .  A
C1133      C1134   1.391       .  A
C1133      C1138   1.388       .  A
C1133      H1140   1.061       .  S
C1134      C1135   1.394       .  A
C1135      C1136   1.388       .  A
C1136      C1137   1.393       .  A
C1136      H1141   1.058       .  S
C1137      C1138   1.396       .  A
C1138      F1139   1.339       .  S
C1143      H1150   1.083       .  S
C1144      C1145   1.411       .  A
C1145      C1146   1.396       .  A
C1145      F1152   1.354       .  S
C1146      C1147   1.422       .  A
C1146      H1151   1.083       .  S
C1147      C1148   1.426       .  A
C1148      F1149   1.345       .  S
