geometry optimzed in LAMMPS
_audit_creation_date              2020-11-30 
_audit_creation_method            'lammps2cif' 
_symmetry_space_group_name_H-M    'P1' 
_symmetry_Int_Tables_number       1 
_symmetry_cell_setting            triclinic 
loop_ 
_symmetry_equiv_pos_as_xyz 
  x,y,z 
_cell_length_a                    44.24816364740348 
_cell_length_b                    44.30054639206833 
_cell_length_c                    44.26190674615259 
_cell_angle_alpha                 89.89955925103126 
_cell_angle_beta                  89.84941048513504 
_cell_angle_gamma                 89.08205562692399 
loop_ 
_atom_site_label 
_atom_site_type_symbol 
_atom_site_fract_x 
_atom_site_fract_y 
_atom_site_fract_z 
_atom_site_charge 
O1          O  0.49769524  0.45720887  0.27309080    -0.72970
O2          O  0.49812831  0.04771150  0.27347278    -0.73950
O3          O  0.45142808  0.00235843  0.27220872    -0.62570
O4          O  0.04312909  0.50186705  0.27330641    -0.70980
O5          O  0.04327047  0.50245593  0.22349600    -0.70530
O6          O  0.45265769  0.00219231  0.22223704    -0.61790
O7          O  0.99845870  0.04818585  0.22330901    -0.74290
O8          O  0.99875757  0.45727822  0.22289745    -0.73070
Cu9        Cu  0.49743957  0.00237705  0.27478939     1.04560
Cu10       Cu  0.99818609  0.50264634  0.22128353     1.04330
C11         C  0.99860670  0.44306101  0.24802353     0.93230
C12         C  0.49950556  0.06214261  0.24853586     0.92370
C13         C  0.43756096  0.00148162  0.24683013     0.84510
C14         C  0.05778947  0.50208359  0.24830698     0.90780
O15         O  0.48275983  0.20683764  0.25190779    -0.72970
O16         O  0.47706993  0.29652627  0.25022867    -0.73950
O17         O  0.47761396  0.25071537  0.20584250    -0.62570
O18         O  0.48197142  0.25256909  0.29609842    -0.70980
O19         O  0.03205332  0.25359154  0.29401743    -0.70530
O20         O  0.02768977  0.25250395  0.20331452    -0.61790
O21         O  0.02677529  0.29878365  0.24822310    -0.74290
O22         O  0.03253777  0.20770163  0.24913840    -0.73070
Cu23       Cu  0.47820122  0.25156561  0.25110809     1.04560
Cu24       Cu  0.03157576  0.25327303  0.24857642     1.04330
C25         C  0.00815739  0.19273616  0.25064605     0.93230
C26         C  0.00091003  0.31219892  0.24914536     0.92370
C27         C  0.00196822  0.25131108  0.19037748     0.84510
C28         C  0.00756139  0.25317746  0.30931387     0.90780
O29         O  0.24737387  0.46587303  0.29872707    -0.72970
O30         O  0.24672968  0.46622151  0.20768980    -0.73950
O31         O  0.29260693  0.46215521  0.25259910    -0.62570
O32         O  0.20148520  0.46958770  0.25363670    -0.70980
O33         O  0.20433332  0.01960703  0.25394945    -0.70530
O34         O  0.29432921  0.01213065  0.25266425    -0.61790
O35         O  0.24911348  0.01608736  0.20828657    -0.74290
O36         O  0.24980422  0.01558377  0.29855003    -0.73070
Cu37       Cu  0.24689747  0.46415194  0.25323050     1.04560
Cu38       Cu  0.24952590  0.01750333  0.25343330     1.04330
C39         C  0.24861085  0.49073996  0.31318875     0.93230
C40         C  0.24806607  0.49134621  0.19356152     0.92370
C41         C  0.30781070  0.48641502  0.25190199     0.84510
C42         C  0.18870294  0.49567686  0.25384959     0.90780
O43         O  0.22098691  0.04713238  0.00123731    -0.72970
O44         O  0.22240767  0.45694571  0.00464301    -0.73950
O45         O  0.22160518  0.50317324  0.04868949    -0.62570
O46         O  0.22222148  0.00029876  0.45777593    -0.70980
O47         O  0.27239138  0.00129075  0.45811401    -0.70530
O48         O  0.27173912  0.50157169  0.04872086    -0.61790
O49         O  0.27223355  0.45610770  0.00364091    -0.74290
O50         O  0.27094256  0.04739099  0.50245149    -0.73070
Cu51       Cu  0.22010115  0.50196541  0.00314740     1.04560
Cu52       Cu  0.27360506  0.00170327  0.50331736     1.04330
C53         C  0.24561784  0.06175548  0.50098280     0.93230
C54         C  0.24721236  0.44196425  0.00414220     0.92370
C55         C  0.24663541  0.50198538  0.06302577     0.84510
C56         C  0.24748166  0.00032932  0.44373886     0.90780
O57         O  0.00174214  0.22325597  0.04372943    -0.72970
O58         O  0.00066052  0.22980666  0.45282009    -0.73950
O59         O  0.04681552  0.22567626  0.49757672    -0.62570
O60         O  0.45604346  0.22673408  0.99927321    -0.70980
O61         O  0.45617626  0.27678512  0.00048408    -0.70530
O62         O  0.04705532  0.27559142  0.50161705    -0.61790
O63         O  0.00328235  0.27946347  0.45605328    -0.74290
O64         O  0.50083662  0.27302599  0.04629756    -0.73070
Cu65       Cu  0.00136096  0.22460870  0.49819828     1.04560
Cu66       Cu  0.50177211  0.27792114  0.00126178     1.04330
C67         C  0.50101794  0.24733593  0.05954405     0.93230
C68         C  0.00184450  0.25571080  0.43998771     0.92370
C69         C  0.06122084  0.25036021  0.49943893     0.84510
C70         C  0.44178501  0.25199258  0.00003254     0.90780
O71         O  0.24956299  0.20530472  0.02172737    -0.72970
O72         O  0.25084328  0.29580865  0.02624652    -0.73950
O73         O  0.20511219  0.25175360  0.02175508    -0.62570
O74         O  0.29544897  0.24917108  0.02650538    -0.70980
O75         O  0.29784882  0.25188263  0.47661556    -0.70530
O76         O  0.20734338  0.25356936  0.47181089    -0.61790
O77         O  0.25280187  0.29802251  0.47611986    -0.74290
O78         O  0.25273890  0.20757292  0.47173584    -0.73070
Cu79       Cu  0.25016289  0.25043299  0.02580279     1.04560
Cu80       Cu  0.25280173  0.25287290  0.47232460     1.04330
C81         C  0.25097520  0.19218641  0.99605649     0.93230
C82         C  0.25200306  0.31108321  0.00178612     0.92370
C83         C  0.19182492  0.25282972  0.99616240     0.84510
C84         C  0.31102140  0.25012467  0.00224612     0.90780
C85         C  0.39385615  0.23587702  0.02353932    -0.05810
C86         C  0.40835753  0.25226639  0.00071673     0.00120
C87         C  0.39087960  0.26753119  0.47862090    -0.08450
C88         C  0.35930772  0.26613926  0.48023720    -0.05830
C89         C  0.34454747  0.25024472  0.00328530     0.00110
C90         C  0.36207318  0.23480511  0.02554381    -0.08360
C91         C  0.34769604  0.21698900  0.05105479     0.62020
H92         H  0.40776746  0.22426853  0.04012736     0.12710
H93         H  0.34577734  0.27788382  0.46345465     0.12730
C94         C  0.40548733  0.28460527  0.45298407     0.62250
F95         F  0.36901939  0.20096101  0.06769356    -0.22910
F96         F  0.32751984  0.19650673  0.03950475    -0.20240
F97         F  0.33269284  0.23649572  0.07052956    -0.19920
F98         F  0.42596673  0.26580205  0.43828233    -0.19970
F99         F  0.42004167  0.30941206  0.46450357    -0.20290
F100        F  0.38457866  0.29480142  0.43194065    -0.22970
C101        C  0.10879658  0.26674201  0.47579293    -0.05810
C102        C  0.09454350  0.25000968  0.99849874     0.00120
C103        C  0.11217894  0.23424738  0.02011620    -0.08450
C104        C  0.14379208  0.23571295  0.01819117    -0.05830
C105        C  0.15828176  0.25221350  0.99534585     0.00110
C106        C  0.14052323  0.26796456  0.47354216    -0.08360
C107        C  0.15462442  0.28645709  0.44839094     0.62020
H108        H  0.09469999  0.27863442  0.45955731     0.12710
H109        H  0.15755029  0.22364885  0.03457639     0.12730
C110        C  0.09764965  0.21673246  0.04562901     0.62250
F111        F  0.13307968  0.30249624  0.43204296    -0.22910
F112        F  0.16988712  0.26754188  0.42853593    -0.20240
F113        F  0.17449397  0.30697574  0.46043484    -0.19920
F114        F  0.08212001  0.19260736  0.03391856    -0.19970
F115        F  0.07787596  0.23547569  0.06133899    -0.20290
F116        F  0.11881550  0.20547889  0.06587813    -0.22970
C117        C  0.27544557  0.39290887  0.00598048    -0.05810
C118        C  0.24724536  0.40812489  0.00399058     0.00120
C119        C  0.22048555  0.39061223  0.50135633    -0.08450
C120        C  0.22330278  0.35892420  0.50119067    -0.05830
C121        C  0.25138827  0.34425095  0.00305010     0.00110
C122        C  0.27795182  0.36121766  0.00532476    -0.08360
C123        C  0.30873631  0.34569587  0.00665242     0.62020
H124        H  0.29578961  0.40599941  0.00786758     0.12710
H125        H  0.20345718  0.34505159  0.49940966     0.12730
C126        C  0.18895624  0.40452595  0.49830331     0.62250
F127        F  0.33192313  0.36622096  0.50876004    -0.22910
F128        F  0.31327082  0.32879490  0.48076673    -0.20240
F129        F  0.31015431  0.32685445  0.03157028    -0.19920
F130        F  0.18768762  0.42290569  0.47301669    -0.19970
F131        F  0.18181695  0.42102010  0.02390631    -0.20290
F132        F  0.16698254  0.38282903  0.99502037    -0.22970
C133        C  0.22403505  0.14561351  0.00777547    -0.05810
C134        C  0.24937621  0.15898091  0.99481292     0.00120
C135        C  0.27232847  0.14065849  0.48172131    -0.08450
C136        C  0.27030962  0.10908128  0.48466401    -0.05830
C137        C  0.24511986  0.09536422  0.99827018     0.00110
C138        C  0.22067164  0.11411152  0.00849020    -0.08360
C139        C  0.19094574  0.10157472  0.01978844     0.62020
H140        H  0.20640111  0.16034434  0.01670257     0.12710
H141        H  0.28820506  0.09475436  0.47565602     0.12730
C142        C  0.29868266  0.15434252  0.46477215     0.62250
F143        F  0.17129208  0.12405702  0.02983587    -0.22910
F144        F  0.19611276  0.08215563  0.04356643    -0.20240
F145        F  0.17676780  0.08642133  0.99664959    -0.19920
F146        F  0.31361087  0.17437309  0.48314757    -0.19970
F147        F  0.28807959  0.16949151  0.43949274    -0.20290
F148        F  0.31933175  0.13255445  0.45523188    -0.22970
C149        C  0.25544931  0.01942014  0.36074709    -0.05810
C150        C  0.24871653  0.99158269  0.34699936     0.00120
C151        C  0.24197636  0.46637288  0.36586853    -0.08450
C152        C  0.24128706  0.47056442  0.39741565    -0.05830
C153        C  0.24797119  0.99832402  0.41059538     0.00110
C154        C  0.25546920  0.02313999  0.39225212    -0.08360
C155        C  0.26300411  0.05349576  0.40602581     0.62020
H156        H  0.26098683  0.03851627  0.34662146     0.12710
H157        H  0.23597576  0.45195153  0.41232048     0.12730
C158        C  0.23578840  0.43507012  0.35346665     0.62250
F159        F  0.26829664  0.07519455  0.38417268    -0.22910
F160        F  0.28868580  0.05064381  0.42359485    -0.20240
F161        F  0.23919738  0.06352135  0.42387814    -0.19920
F162        F  0.26091969  0.42432811  0.33797635    -0.19970
F163        F  0.21111388  0.43614464  0.33439829    -0.20290
F164        F  0.22952103  0.41453897  0.37617898    -0.22970
C165        C  0.23416040  0.01809921  0.14656411    -0.05810
C166        C  0.24781245  0.49256925  0.15997457     0.00120
C167        C  0.26164760  0.47028074  0.14118353    -0.08450
C168        C  0.26098513  0.47448879  0.10959545    -0.05830
C169        C  0.24674228  0.49974671  0.09639749     0.00110
C170        C  0.23334803  0.02205597  0.11510625    -0.08360
C171        C  0.21867171  0.05014810  0.10190582     0.62020
H172        H  0.22367729  0.03496577  0.16103198     0.12710
H173        H  0.27121512  0.45775999  0.09478175     0.12730
C174        C  0.27757515  0.44253173  0.15410529     0.62250
F175        F  0.21023861  0.07073770  0.12398930    -0.22910
F176        F  0.19302758  0.04213181  0.08630078    -0.20240
F177        F  0.23878309  0.06411605  0.08262160    -0.19920
F178        F  0.25670196  0.42402952  0.16780375    -0.19970
F179        F  0.29894807  0.45112359  0.17503222    -0.20290
F180        F  0.29226998  0.42584148  0.13192301    -0.22970
C181        C  0.49130065  0.27736881  0.35646340    -0.05810
C182        C  0.00826191  0.25443643  0.34258007     0.00120
C183        C  0.02367861  0.23279381  0.36048752    -0.08450
C184        C  0.02074295  0.23452897  0.39210336    -0.05830
C185        C  0.00345335  0.25742463  0.40639828     0.00110
C186        C  0.48882287  0.27986706  0.38799600    -0.08360
C187        C  0.46951266  0.30657854  0.39854302     0.62020
H188        H  0.47969080  0.29380865  0.34223268     0.12710
H189        H  0.03227711  0.21788869  0.40605201     0.12730
C190        C  0.04236433  0.20751929  0.34626591     0.62250
F191        F  0.44061116  0.30377479  0.38710867    -0.22910
F192        F  0.46715782  0.30966135  0.42924743    -0.20240
F193        F  0.48166667  0.33292085  0.38731124    -0.19920
F194        F  0.06652260  0.21951890  0.33072655    -0.19970
F195        F  0.02466059  0.19139281  0.32649594    -0.20290
F196        F  0.05376098  0.18762527  0.36770274    -0.22970
C197        C  0.49198277  0.27338755  0.10834199    -0.05810
C198        C  0.50011310  0.24635382  0.09335545     0.00120
C199        C  0.00724470  0.22024356  0.11108909    -0.08450
C200        C  0.00801222  0.22308277  0.14280170    -0.05830
C201        C  0.00043724  0.25024173  0.15720456     0.00110
C202        C  0.49152948  0.27561209  0.13997684    -0.08360
C203        C  0.48169218  0.30489734  0.15509901     0.62020
H204        H  0.48563800  0.29301049  0.09507266     0.12710
H205        H  0.01414216  0.20390430  0.15684699     0.12730
C206        C  0.01372303  0.18940478  0.09730693     0.62250
F207        F  0.47466804  0.32725344  0.13426110    -0.22910
F208        F  0.50463425  0.31521345  0.17335649    -0.20240
F209        F  0.45626981  0.29994873  0.17251493    -0.19920
F210        F  0.03832286  0.19079868  0.07817435    -0.19970
F211        F  0.98869863  0.17991976  0.08148849    -0.20290
F212        F  0.02021289  0.16776381  0.11906282    -0.22970
C213        C  0.14152480  0.49742912  0.22474632    -0.05810
C214        C  0.15552028  0.49825490  0.25295594     0.00120
C215        C  0.13795837  0.00204426  0.27931593    -0.08450
C216        C  0.10628383  0.00319123  0.27668210    -0.05830
C217        C  0.09168593  0.50166319  0.24841892     0.00110
C218        C  0.10989229  0.49969018  0.22168659    -0.08360
C219        C  0.09678179  0.50027514  0.18990810     0.62020
H220        H  0.15586691  0.49517812  0.20497705     0.12710
H221        H  0.09272582  0.00541232  0.29695797     0.12730
C222        C  0.15284256  0.00482101  0.31000192     0.62250
F223        F  0.11906871  0.99928787  0.16788667    -0.22910
F224        F  0.08022492  0.02668432  0.18558227    -0.20240
F225        F  0.07858282  0.47558316  0.18558063    -0.19920
F226        F  0.17147398  0.02959885  0.31016267    -0.19970
F227        F  0.16991217  0.47912397  0.31591020    -0.20290
F228        F  0.13182961  0.50838121  0.33299796    -0.22970
C229        C  0.39242919  0.47392864  0.26462825    -0.05810
C230        C  0.40415481  0.99691748  0.24606917     0.00120
C231        C  0.38393356  0.01317720  0.22673111    -0.08450
C232        C  0.35294117  0.00732381  0.22863274    -0.05830
C233        C  0.34116012  0.98595868  0.24849038     0.00110
C234        C  0.36117402  0.46779727  0.26584813    -0.08360
C235        C  0.34962510  0.44253396  0.28574149     0.62020
H236        H  0.40807145  0.46069198  0.27822876     0.12710
H237        H  0.33709555  0.02079054  0.21547149     0.12730
C238        C  0.39272127  0.04061763  0.20842546     0.62250
F239        F  0.37279339  0.42822781  0.30143574    -0.22910
F240        F  0.33572672  0.42116711  0.26801227    -0.20240
F241        F  0.32904353  0.45394588  0.30652112    -0.19920
F242        F  0.41923386  0.03606459  0.19256443    -0.19970
F243        F  0.39533109  0.06439363  0.22813855    -0.20290
F244        F  0.37082903  0.04850800  0.18740190    -0.22970
C245        C  0.47214003  0.39468975  0.24865389    -0.05810
C246        C  0.99951570  0.40990637  0.24820174     0.00120
C247        C  0.02707259  0.39355410  0.24865879    -0.08450
C248        C  0.02635089  0.36185285  0.24876937    -0.05830
C249        C  0.99893180  0.34600681  0.24900493     0.00050
C250        C  0.47107741  0.36292881  0.24932479    -0.08360
C251        C  0.44018617  0.34829375  0.25062445     0.62020
H252        H  0.45148088  0.40814820  0.24866890     0.12710
H253        H  0.04750318  0.34926537  0.24885236     0.12730
C254        C  0.05703260  0.40978628  0.24922838     0.62250
F255        F  0.41680747  0.36945579  0.25106857    -0.22910
F256        F  0.43778279  0.33112177  0.27663682    -0.20240
F257        F  0.43614569  0.33034883  0.22547895    -0.19920
F258        F  0.05842394  0.42783574  0.27464463    -0.19970
F259        F  0.05961844  0.42765023  0.22375115    -0.20290
F260        F  0.08141730  0.38983339  0.24985142    -0.22970
C261        C  0.03069095  0.10820594  0.25187912    -0.05810
C262        C  0.50210131  0.09534547  0.24901695     0.00120
C263        C  0.47636263  0.11417021  0.24695280    -0.08450
C264        C  0.47965648  0.14544862  0.24801917    -0.05830
C265        C  0.50812368  0.15895286  0.25048018     0.00110
C266        C  0.03439123  0.13988138  0.25232636    -0.08360
C267        C  0.06610432  0.15232781  0.25462184     0.62020
H268        H  0.05012739  0.09311417  0.25340487     0.12710
H269        H  0.45958701  0.15957890  0.24619078     0.12730
C270        C  0.44563815  0.10095079  0.24219065     0.62250
F271        F  0.08779275  0.12957977  0.25705910    -0.22910
F272        F  0.06832019  0.17040105  0.27993434    -0.20240
F273        F  0.07266622  0.16893851  0.22900465    -0.19920
F274        F  0.43938049  0.08081632  0.26524088    -0.19970
F275        F  0.44601579  0.08620086  0.21472095    -0.20290
F276        F  0.42285741  0.12274258  0.24160393    -0.22970
O277        O  0.49769462  0.45720926  0.77309049    -0.72970
O278        O  0.49812763  0.04771186  0.77347271    -0.73950
O279        O  0.45142747  0.00235880  0.77220863    -0.62570
O280        O  0.04312850  0.50186750  0.77330611    -0.70980
O281        O  0.04326963  0.50245651  0.72349571    -0.70530
O282        O  0.45265683  0.00219276  0.72223695    -0.61790
O283        O  0.99845784  0.04818644  0.72330895    -0.74290
O284        O  0.99875674  0.45727878  0.72289710    -0.73070
Cu285      Cu  0.49743896  0.00237744  0.77478923     1.04560
Cu286      Cu  0.99818524  0.50264693  0.72128332     1.04330
C287        C  0.99860599  0.44306151  0.74802315     0.93230
C288        C  0.49950476  0.06214303  0.74853583     0.92370
C289        C  0.43756023  0.00148203  0.74683011     0.84510
C290        C  0.05778876  0.50208413  0.74830661     0.90780
O291        O  0.48275912  0.20683810  0.75190712    -0.72970
O292        O  0.47706942  0.29652669  0.75022708    -0.73950
O293        O  0.47761571  0.25071545  0.70584133    -0.62570
O294        O  0.48196831  0.25256998  0.79609728    -0.70980
O295        O  0.03205033  0.25359248  0.79401939    -0.70530
O296        O  0.02769166  0.25250410  0.70331623    -0.61790
O297        O  0.02677489  0.29878416  0.74822444    -0.74290
O298        O  0.03253720  0.20770210  0.74914063    -0.73070
Cu299      Cu  0.47820059  0.25156606  0.75110687     1.04560
Cu300      Cu  0.03157527  0.25327353  0.74857832     1.04330
C301        C  0.00815673  0.19273665  0.75064687     0.93230
C302        C  0.00090958  0.31219941  0.74914514     0.92370
C303        C  0.00197085  0.25131114  0.69037773     0.84510
C304        C  0.00755745  0.25317861  0.80931431     0.90780
O305        O  0.24737083  0.46586715  0.79872368    -0.72970
O306        O  0.24673151  0.46622274  0.70768772    -0.73950
O307        O  0.29260663  0.46215421  0.75259804    -0.62570
O308        O  0.20148442  0.46958623  0.75363248    -0.70980
O309        O  0.20433287  0.01960547  0.75395094    -0.70530
O310        O  0.29432853  0.01212961  0.75266887    -0.61790
O311        O  0.24911532  0.01608854  0.70828990    -0.74290
O312        O  0.24980108  0.01557787  0.79855298    -0.73070
Cu313      Cu  0.24689696  0.46415018  0.75322771     1.04560
Cu314      Cu  0.24952534  0.01750155  0.75343650     1.04330
C315        C  0.24860610  0.49073227  0.81318841     0.93230
C316        C  0.24806876  0.49134880  0.69356229     0.92370
C317        C  0.30781018  0.48641429  0.75190377     0.84510
C318        C  0.18870230  0.49567550  0.75384824     0.90780
O319        O  0.22101253  0.04716728  0.50123857    -0.72970
O320        O  0.22241099  0.45697946  0.50464035    -0.73950
O321        O  0.22161749  0.50320535  0.54868966    -0.62570
O322        O  0.22220542  0.00026380  0.95777670    -0.70980
O323        O  0.27237503  0.00126451  0.95811322    -0.70530
O324        O  0.27175109  0.50159234  0.54872348    -0.61790
O325        O  0.27223700  0.45613334  0.50363933    -0.74290
O326        O  0.27091649  0.04736680  0.00244600    -0.73070
Cu327      Cu  0.22011541  0.50200011  0.50314670     1.04560
Cu328      Cu  0.27359061  0.00167931  0.00331557     1.04330
C329        C  0.24558872  0.06172600  0.00097660     0.93230
C330        C  0.24721343  0.44199412  0.50413905     0.92370
C331        C  0.24664670  0.50200984  0.56302747     0.84510
C332        C  0.24746510  0.00030046  0.94373894     0.90780
O333        O  0.00175441  0.22325761  0.54372964    -0.72970
O334        O  0.00064686  0.22980410  0.95281972    -0.73950
O335        O  0.04680129  0.22568088  0.99757589    -0.62570
O336        O  0.45605614  0.22674398  0.49927382    -0.70980
O337        O  0.45619774  0.27679482  0.50048544    -0.70530
O338        O  0.04703498  0.27559614  0.00161640    -0.61790
O339        O  0.00326171  0.27946144  0.95605284    -0.74290
O340        O  0.50085680  0.27302763  0.54629840    -0.73070
Cu341      Cu  0.00134790  0.22460644  0.99819784     1.04560
Cu342      Cu  0.50179320  0.27792319  0.50126258     1.04330
C343        C  0.50103303  0.24733738  0.55954448     0.93230
C344        C  0.00182797  0.25570843  0.93998737     0.92370
C345        C  0.06120352  0.25036652  0.99943823     0.84510
C346        C  0.44180210  0.25200501  0.50003400     0.90780
O347        O  0.24959695  0.20533804  0.52174470    -0.72970
O348        O  0.25084292  0.29584267  0.52624708    -0.73950
O349        O  0.20512785  0.25176987  0.52176295    -0.62570
O350        O  0.29546583  0.24921956  0.52651534    -0.70980
O351        O  0.29783142  0.25184219  0.97660622    -0.70530
O352        O  0.20732506  0.25356129  0.97180319    -0.61790
O353        O  0.25280086  0.29799648  0.97611963    -0.74290
O354        O  0.25270381  0.20754745  0.97171874    -0.73070
Cu355      Cu  0.25017936  0.25046670  0.52581189     1.04560
Cu356      Cu  0.25278387  0.25284784  0.97231592     1.04330
C357        C  0.25101523  0.19221564  0.49607619     0.93230
C358        C  0.25199871  0.31111340  0.50178409     0.92370
C359        C  0.19184196  0.25283693  0.49616923     0.84510
C360        C  0.31103830  0.25016967  0.50225585     0.90780
C361        C  0.39387029  0.23589700  0.52354069    -0.05810
C362        C  0.40837458  0.25228585  0.50071957     0.00120
C363        C  0.39086014  0.26750343  0.97861446    -0.08450
C364        C  0.35928873  0.26609970  0.98022659    -0.05830
C365        C  0.34456407  0.25028517  0.50329467     0.00110
C366        C  0.36208704  0.23483388  0.52554716    -0.08360
C367        C  0.34770607  0.21701252  0.55105220     0.62020
H368        H  0.40777949  0.22428111  0.54012540     0.12710
H369        H  0.34575671  0.27783762  0.96344082     0.12730
C370        C  0.40546503  0.28458253  0.95297926     0.62250
F371        F  0.36902577  0.20097186  0.56768362    -0.22910
F372        F  0.32752294  0.19654076  0.53949537    -0.20240
F373        F  0.33270958  0.23651620  0.57053500    -0.19920
F374        F  0.42595042  0.26578541  0.93827810    -0.19970
F375        F  0.42001197  0.30939284  0.96450081    -0.20290
F376        F  0.38455522  0.29477429  0.93193491    -0.22970
C377        C  0.10877953  0.26675177  0.97579401    -0.05810
C378        C  0.09456091  0.25000087  0.49849850     0.00120
C379        C  0.11219671  0.23424161  0.52011792    -0.08450
C380        C  0.14381007  0.23571080  0.51819491    -0.05830
C381        C  0.15829912  0.25221222  0.49534970     0.00110
C382        C  0.14050640  0.26797053  0.97354115    -0.08360
C383        C  0.15460832  0.28646306  0.94839041     0.62020
H384        H  0.09468320  0.27864657  0.95955990     0.12710
H385        H  0.15756888  0.22365037  0.53458229     0.12730
C386        C  0.09766722  0.21672749  0.54563116     0.62250
F387        F  0.13306447  0.30250657  0.93204540    -0.22910
F388        F  0.16986690  0.26754746  0.92853272    -0.20240
F389        F  0.17448175  0.30697778  0.96043451    -0.19920
F390        F  0.08213688  0.19260251  0.53392135    -0.19970
F391        F  0.07789389  0.23547144  0.56134073    -0.20290
F392        F  0.11883300  0.20547395  0.56588035    -0.22970
C393        C  0.27544182  0.39293746  0.50597462    -0.05810
C394        C  0.24724263  0.40815506  0.50398526     0.00120
C395        C  0.22048936  0.39058013  0.00136294    -0.08450
C396        C  0.22330837  0.35889260  0.00119862    -0.05830
C397        C  0.25138226  0.34428124  0.50304329     0.00110
C398        C  0.27794642  0.36124667  0.50531838    -0.08360
C399        C  0.30873036  0.34572372  0.50664620     0.62020
H400        H  0.29578677  0.40602647  0.50786243     0.12710
H401        H  0.20346349  0.34501890  0.99941824     0.12730
C402        C  0.18895889  0.40449094  0.99830862     0.62250
F403        F  0.33192821  0.36619414  0.00876633    -0.22910
F404        F  0.31327750  0.32876722  0.98077296    -0.20240
F405        F  0.31014759  0.32688241  0.53156417    -0.19920
F406        F  0.18768915  0.42286881  0.97302070    -0.19970
F407        F  0.18181628  0.42105428  0.52390208    -0.20290
F408        F  0.16697805  0.38286606  0.49501413    -0.22970
C409        C  0.22408738  0.14564381  0.50781686    -0.05810
C410        C  0.24942060  0.15900996  0.49483801     0.00120
C411        C  0.27229461  0.14063019  0.98171413    -0.08450
C412        C  0.27027840  0.10905339  0.98466042    -0.05830
C413        C  0.24515598  0.09539387  0.49828477     0.00110
C414        C  0.22071842  0.11414308  0.50852544    -0.08360
C415        C  0.19099539  0.10161005  0.51983447     0.62020
H416        H  0.20646056  0.16037527  0.51675685     0.12710
H417        H  0.28818204  0.09472809  0.97566610     0.12730
C418        C  0.29865871  0.15431540  0.96478178     0.62250
F419        F  0.17135773  0.12409212  0.52991306    -0.22910
F420        F  0.19617033  0.08217116  0.54359340    -0.20240
F421        F  0.17679632  0.08647957  0.49669378    -0.19920
F422        F  0.31357349  0.17434725  0.98316678    -0.19970
F423        F  0.28807087  0.16946344  0.93949552    -0.20290
F424        F  0.31931539  0.13252850  0.95525514    -0.22970
C425        C  0.25543787  0.01940561  0.86075156    -0.05810
C426        C  0.24870722  0.99157017  0.84699887     0.00120
C427        C  0.24196445  0.46635749  0.86586317    -0.08450
C428        C  0.24127123  0.47054409  0.89741072    -0.05830
C429        C  0.24795451  0.99830128  0.91059543     0.00110
C430        C  0.25545435  0.02312040  0.89225708    -0.08360
C431        C  0.26298751  0.05347422  0.90603635     0.62020
H432        H  0.26097684  0.03850393  0.84662950     0.12710
H433        H  0.23595854  0.45192884  0.91231205     0.12730
C434        C  0.23577857  0.43505646  0.85345581     0.62250
F435        F  0.26828137  0.07517664  0.88418718    -0.22910
F436        F  0.28866785  0.05062025  0.92360706    -0.20240
F437        F  0.23917908  0.06349649  0.92388821    -0.19920
F438        F  0.26091227  0.42431697  0.83796770    -0.19970
F439        F  0.21110678  0.43613336  0.83438399    -0.20290
F440        F  0.22950817  0.41452197  0.87616421    -0.22970
C441        C  0.23416466  0.01810700  0.64656913    -0.05810
C442        C  0.24781639  0.49257556  0.65997572     0.00120
C443        C  0.26165258  0.47029030  0.64118167    -0.08450
C444        C  0.26099269  0.47450421  0.60959409    -0.05830
C445        C  0.24675127  0.49976492  0.59639955     0.00110
C446        C  0.23335521  0.02206986  0.61511239    -0.08360
C447        C  0.21868157  0.05016519  0.60191806     0.62020
H448        H  0.22368012  0.03497061  0.66103943     0.12710
H449        H  0.27122372  0.45777802  0.59477816     0.12730
C450        C  0.27757826  0.44253875  0.65409995     0.62250
F451        F  0.21024544  0.07074946  0.62400546    -0.22910
F452        F  0.19303938  0.04215288  0.58630768    -0.20240
F453        F  0.23879763  0.06413699  0.58264177    -0.19920
F454        F  0.25670358  0.42403569  0.66779494    -0.19970
F455        F  0.29895073  0.45112659  0.67502903    -0.20290
F456        F  0.29227304  0.42585104  0.63191577    -0.22970
C457        C  0.49129141  0.27736832  0.85646290    -0.05810
C458        C  0.00825562  0.25443748  0.84258055     0.00120
C459        C  0.02367169  0.23279514  0.86048889    -0.08450
C460        C  0.02073222  0.23452887  0.89210442    -0.05830
C461        C  0.00343899  0.25742252  0.90639821     0.00110
C462        C  0.48880890  0.27986453  0.88799530    -0.08360
C463        C  0.46949446  0.30657341  0.89854146     0.62020
H464        H  0.47968220  0.29380806  0.84223154     0.12710
H465        H  0.03226626  0.21788908  0.90605375     0.12730
C466        C  0.04236076  0.20752233  0.84626851     0.62250
F467        F  0.44059589  0.30376938  0.88709980    -0.22910
F468        F  0.46713152  0.30965165  0.92924580    -0.20240
F469        F  0.48164956  0.33291799  0.88731636    -0.19920
F470        F  0.06651978  0.21952411  0.83073203    -0.19970
F471        F  0.02466032  0.19139506  0.82649624    -0.20290
F472        F  0.05375661  0.18762854  0.86770598    -0.22970
C473        C  0.49199209  0.27338815  0.60834169    -0.05810
C474        C  0.50012455  0.24635478  0.59335566     0.00120
C475        C  0.00725383  0.22024420  0.61108956    -0.08450
C476        C  0.00801833  0.22308300  0.64280227    -0.05830
C477        C  0.00044186  0.25024179  0.65720475     0.00110
C478        C  0.49153506  0.27561210  0.63997654    -0.08360
C479        C  0.48169489  0.30489673  0.65509815     0.62020
H480        H  0.48564846  0.29301113  0.59507189     0.12710
H481        H  0.01414705  0.20390437  0.65684787     0.12730
C482        C  0.01373280  0.18940551  0.59730745     0.62250
F483        F  0.47467156  0.32725268  0.63425982    -0.22910
F484        F  0.50463472  0.31521381  0.67335788    -0.20240
F485        F  0.45627115  0.29994673  0.67251166    -0.19920
F486        F  0.03833403  0.19079938  0.57817660    -0.19970
F487        F  0.98870941  0.17992100  0.58148709    -0.20290
F488        F  0.02022075  0.16776421  0.61906356    -0.22970
C489        C  0.14152388  0.49742843  0.72474541    -0.05810
C490        C  0.15551961  0.49825413  0.75295489     0.00120
C491        C  0.13795795  0.00204453  0.77931497    -0.08450
C492        C  0.10628338  0.00319188  0.77668137    -0.05830
C493        C  0.09168524  0.50166363  0.74841834     0.00110
C494        C  0.10989139  0.49969030  0.72168590    -0.08360
C495        C  0.09678069  0.50027571  0.68990751     0.62020
H496        H  0.15586578  0.49517697  0.70497604     0.12710
H497        H  0.09272551  0.00541350  0.79695728     0.12730
C498        C  0.15284230  0.00482195  0.81000084     0.62250
F499        F  0.11906747  0.99928864  0.66788594    -0.22910
F500        F  0.08022394  0.02668506  0.68558208    -0.20240
F501        F  0.07858158  0.47558387  0.68557990    -0.19920
F502        F  0.17147327  0.02960013  0.81016116    -0.19970
F503        F  0.16991240  0.47912531  0.81590945    -0.20290
F504        F  0.13182944  0.50838209  0.83299700    -0.22970
C505        C  0.39242887  0.47392869  0.76462837    -0.05810
C506        C  0.40415409  0.99691775  0.74606941     0.00120
C507        C  0.38393244  0.01317771  0.72673192    -0.08450
C508        C  0.35294002  0.00732447  0.72863442    -0.05830
C509        C  0.34115951  0.98595868  0.74849173     0.00110
C510        C  0.36117377  0.46779714  0.76584867    -0.08360
C511        C  0.34962515  0.44253349  0.78574172     0.62020
H512        H  0.40807140  0.46069186  0.77822843     0.12710
H513        H  0.33709406  0.02079155  0.71547392     0.12730
C514        C  0.39271988  0.04061791  0.70842571     0.62250
F515        F  0.37279364  0.42822720  0.80143551    -0.22910
F516        F  0.33572664  0.42116692  0.76801229    -0.20240
F517        F  0.32904372  0.45394506  0.80652169    -0.19920
F518        F  0.41923252  0.03606489  0.69256476    -0.19970
F519        F  0.39532947  0.06439446  0.72813819    -0.20290
F520        F  0.37082753  0.04850744  0.68740195    -0.22970
C521        C  0.47213940  0.39469010  0.74865330    -0.05810
C522        C  0.99951505  0.40990685  0.74820129     0.00120
C523        C  0.02707198  0.39355465  0.74865851    -0.08450
C524        C  0.02635035  0.36185339  0.74876912    -0.05830
C525        C  0.99893131  0.34600729  0.74900451     0.00050
C526        C  0.47107686  0.36292916  0.74932419    -0.08360
C527        C  0.44018566  0.34829399  0.75062364     0.62020
H528        H  0.45148021  0.40814849  0.74866817     0.12710
H529        H  0.04750267  0.34926596  0.74885223     0.12730
C530        C  0.05703194  0.40978690  0.74922827     0.62250
F531        F  0.41680690  0.36945597  0.75106794    -0.22910
F532        F  0.43778228  0.33112174  0.77663583    -0.20240
F533        F  0.43614530  0.33034932  0.72547791    -0.19920
F534        F  0.05842312  0.42783635  0.77464454    -0.19970
F535        F  0.05961787  0.42765088  0.72375106    -0.20290
F536        F  0.08141669  0.38983407  0.74985142    -0.22970
C537        C  0.03069019  0.10820636  0.75187948    -0.05810
C538        C  0.50210052  0.09534587  0.74901706     0.00120
C539        C  0.47636185  0.11417063  0.74695306    -0.08450
C540        C  0.47965573  0.14544903  0.74801982    -0.05830
C541        C  0.50812296  0.15895325  0.75048098     0.00110
C542        C  0.03439051  0.13988179  0.75232703    -0.08360
C543        C  0.06610364  0.15232814  0.75462256     0.62020
H544        H  0.05012661  0.09311456  0.75340514     0.12710
H545        H  0.45958625  0.15957932  0.74619165     0.12730
C546        C  0.44563734  0.10095126  0.74219072     0.62250
F547        F  0.08779206  0.12958003  0.75705931    -0.22910
F548        F  0.06831968  0.17040094  0.77993537    -0.20240
F549        F  0.07266543  0.16893927  0.72900562    -0.19920
F550        F  0.43937958  0.08081660  0.76524077    -0.19970
F551        F  0.44601493  0.08620152  0.71472092    -0.20290
F552        F  0.42285664  0.12274309  0.74160415    -0.22970
O553        O  0.49769527  0.95720885  0.27309074    -0.72970
O554        O  0.49812833  0.54771150  0.27347280    -0.73950
O555        O  0.45142807  0.50235846  0.27220875    -0.62570
O556        O  0.04312909  0.00186711  0.27330640    -0.70980
O557        O  0.04327049  0.00245602  0.22349600    -0.70530
O558        O  0.45265768  0.50219233  0.22223708    -0.61790
O559        O  0.99845880  0.54818586  0.22330904    -0.74290
O560        O  0.99875771  0.95727820  0.22289742    -0.73070
Cu561      Cu  0.49743956  0.50237706  0.27478943     1.04560
Cu562      Cu  0.99818611  0.00264633  0.22128350     1.04330
C563        C  0.99860685  0.94306099  0.24802349     0.93230
C564        C  0.49950559  0.56214260  0.24853588     0.92370
C565        C  0.43756095  0.50148165  0.24683017     0.84510
C566        C  0.05778948  0.00208369  0.24830698     0.90780
O567        O  0.48275997  0.70683762  0.25190776    -0.72970
O568        O  0.47707006  0.79652623  0.25022847    -0.73950
O569        O  0.47761427  0.75071524  0.20584238    -0.62570
O570        O  0.48197139  0.75256913  0.29609832    -0.70980
O571        O  0.03205329  0.75359164  0.29401757    -0.70530
O572        O  0.02769035  0.75250380  0.20331462    -0.61790
O573        O  0.02677558  0.79878363  0.24822311    -0.74290
O574        O  0.03253807  0.70770159  0.24913866    -0.73070
Cu575      Cu  0.47820136  0.75156557  0.25110797     1.04560
Cu576      Cu  0.03157605  0.75327300  0.24857656     1.04330
C577        C  0.00815768  0.69273614  0.25064618     0.93230
C578        C  0.00091031  0.81219889  0.24914521     0.92370
C579        C  0.00196887  0.75131088  0.19037746     0.84510
C580        C  0.00756128  0.75317760  0.30931387     0.90780
O581        O  0.24737387  0.96587305  0.29872708    -0.72970
O582        O  0.24672966  0.96622154  0.20768981    -0.73950
O583        O  0.29260692  0.96215522  0.25259910    -0.62570
O584        O  0.20148520  0.96958775  0.25363672    -0.70980
O585        O  0.20433330  0.51960698  0.25394942    -0.70530
O586        O  0.29432919  0.51213064  0.25266425    -0.61790
O587        O  0.24911347  0.51608733  0.20828656    -0.74290
O588        O  0.24980419  0.51558374  0.29855002    -0.73070
Cu589      Cu  0.24689746  0.96415197  0.25323052     1.04560
Cu590      Cu  0.24952588  0.51750330  0.25343328     1.04330
C591        C  0.24861087  0.99073998  0.31318876     0.93230
C592        C  0.24806606  0.99134625  0.19356153     0.92370
C593        C  0.30781070  0.98641502  0.25190199     0.84510
C594        C  0.18870295  0.99567692  0.25384962     0.90780
O595        O  0.22098689  0.54713236  0.00123733    -0.72970
O596        O  0.22240760  0.95694573  0.00464304    -0.73950
O597        O  0.22160515  0.00317329  0.04868950    -0.62570
O598        O  0.22222145  0.50029872  0.45777592    -0.70980
O599        O  0.27239134  0.50129074  0.45811400    -0.70530
O600        O  0.27173909  0.00157171  0.04872086    -0.61790
O601        O  0.27223348  0.95610769  0.00364095    -0.74290
O602        O  0.27094247  0.54739103  0.50245144    -0.73070
Cu603      Cu  0.22010112  0.00196543  0.00314741     1.04560
Cu604      Cu  0.27360502  0.50170330  0.50331735     1.04330
C605        C  0.24561774  0.56175550  0.50098273     0.93230
C606        C  0.24721229  0.94196425  0.00414224     0.92370
C607        C  0.24663538  0.00198543  0.06302578     0.84510
C608        C  0.24748162  0.50032929  0.44373885     0.90780
O609        O  0.00174243  0.72325603  0.04372933    -0.72970
O610        O  0.00066030  0.72980710  0.45282002    -0.73950
O611        O  0.04681554  0.72567682  0.49757632    -0.62570
O612        O  0.45604341  0.72673400  0.99927338    -0.70980
O613        O  0.45617592  0.77678506  0.00048431    -0.70530
O614        O  0.04705512  0.77559197  0.50161680    -0.61790
O615        O  0.00328185  0.77946393  0.45605330    -0.74290
O616        O  0.50083658  0.77302602  0.04629755    -0.73070
Cu617      Cu  0.00136103  0.72460897  0.49819818     1.04560
Cu618      Cu  0.50177178  0.77792136  0.00126178     1.04330
C619        C  0.50101812  0.74733593  0.05954399     0.93230
C620        C  0.00184412  0.75571128  0.43998769     0.92370
C621        C  0.06122075  0.75036082  0.49943855     0.84510
C622        C  0.44178483  0.75199243  0.00003280     0.90780
O623        O  0.24956267  0.70530479  0.02172736    -0.72970
O624        O  0.25084312  0.79580869  0.02624643    -0.73950
O625        O  0.20511196  0.75175379  0.02175488    -0.62570
O626        O  0.29544874  0.74917104  0.02650538    -0.70980
O627        O  0.29784874  0.75188257  0.47661536    -0.70530
O628        O  0.20734331  0.75356958  0.47181042    -0.61790
O629        O  0.25280192  0.79802256  0.47611954    -0.74290
O630        O  0.25273870  0.70757296  0.47173552    -0.73070
Cu631      Cu  0.25016265  0.75043306  0.02580272     1.04560
Cu632      Cu  0.25280166  0.75287296  0.47232427     1.04330
C633        C  0.25097490  0.69218645  0.99605649     0.93230
C634        C  0.25200298  0.81108324  0.00178603     0.92370
C635        C  0.19182474  0.75282999  0.99616217     0.84510
C636        C  0.31102120  0.75012450  0.00224614     0.90780
C637        C  0.39385594  0.73587743  0.02353999    -0.05810
C638        C  0.40835737  0.75226605  0.00071689     0.00120
C639        C  0.39087950  0.76753117  0.47862091    -0.08450
C640        C  0.35930762  0.76613921  0.48023714    -0.05830
C641        C  0.34454730  0.75024440  0.00328532     0.00110
C642        C  0.36207295  0.73480551  0.02554438    -0.08360
C643        C  0.34769576  0.71699011  0.05105584     0.62020
H644        H  0.40776722  0.72426954  0.04012846     0.12710
H645        H  0.34577727  0.77788375  0.46345456     0.12730
C646        C  0.40548726  0.78460525  0.45298410     0.62250
F647        F  0.36901909  0.70096268  0.06769516    -0.22910
F648        F  0.32751968  0.69650743  0.03950631    -0.20240
F649        F  0.33269243  0.73649737  0.07052998    -0.19920
F650        F  0.42596669  0.76580202  0.43828240    -0.19970
F651        F  0.42004158  0.80941205  0.46450361    -0.20290
F652        F  0.38457862  0.79480139  0.43194064    -0.22970
C653        C  0.10879651  0.76674272  0.47579254    -0.05810
C654        C  0.09454331  0.75001031  0.99849838     0.00120
C655        C  0.11217870  0.73424792  0.02011583    -0.08450
C656        C  0.14379184  0.73571340  0.01819084    -0.05830
C657        C  0.15828158  0.75221393  0.99534557     0.00110
C658        C  0.14052317  0.76796513  0.47354172    -0.08360
C659        C  0.15462442  0.78645762  0.44839050     0.62020
H660        H  0.09469994  0.77863518  0.45955695     0.12710
H661        H  0.15754999  0.72364922  0.03457605     0.12730
C662        C  0.09764935  0.71673293  0.04562855     0.62250
F663        F  0.13307973  0.80249687  0.43204256    -0.22910
F664        F  0.16988703  0.76754236  0.42853547    -0.20240
F665        F  0.17449407  0.80697617  0.46043440    -0.19920
F666        F  0.08211979  0.69260783  0.03391799    -0.19970
F667        F  0.07787560  0.73547612  0.06133850    -0.20290
F668        F  0.11881514  0.70547935  0.06587772    -0.22970
C669        C  0.27544549  0.89290887  0.00598047    -0.05810
C670        C  0.24724528  0.90812490  0.00399061     0.00120
C671        C  0.22048553  0.89061225  0.50135619    -0.08450
C672        C  0.22330277  0.85892423  0.50119044    -0.05830
C673        C  0.25138819  0.84425097  0.00305001     0.00110
C674        C  0.27795174  0.86121767  0.00532472    -0.08360
C675        C  0.30873623  0.84569587  0.00665251     0.62020
H676        H  0.29578954  0.90599941  0.00786759     0.12710
H677        H  0.20345717  0.84505162  0.49940941     0.12730
C678        C  0.18895622  0.90452598  0.49830325     0.62250
F679        F  0.33192312  0.86622097  0.50875991    -0.22910
F680        F  0.31327085  0.82879498  0.48076650    -0.20240
F681        F  0.31015414  0.82685452  0.03157044    -0.19920
F682        F  0.18768756  0.92290577  0.47301667    -0.19970
F683        F  0.18181696  0.92102011  0.02390654    -0.20290
F684        F  0.16698242  0.88282905  0.99502065    -0.22970
C685        C  0.22403481  0.64561350  0.00777543    -0.05810
C686        C  0.24937599  0.65898095  0.99481297     0.00120
C687        C  0.27232826  0.64065852  0.48172109    -0.08450
C688        C  0.27030944  0.60908132  0.48466385    -0.05830
C689        C  0.24511979  0.59536424  0.99827026     0.00110
C690        C  0.22067149  0.61411150  0.00849021    -0.08360
C691        C  0.19094562  0.60157463  0.01978845     0.62020
H692        H  0.20640079  0.66034429  0.01670242     0.12710
H693        H  0.28820491  0.59475440  0.47565589     0.12730
C694        C  0.29868245  0.65434255  0.46477194     0.62250
F695        F  0.17129191  0.62405689  0.02983587    -0.22910
F696        F  0.19611268  0.58215556  0.04356645    -0.20240
F697        F  0.17676771  0.58642121  0.99664960    -0.19920
F698        F  0.31361060  0.67437318  0.48314734    -0.19970
F699        F  0.28807939  0.66949149  0.43949249    -0.20290
F700        F  0.31933158  0.63255450  0.45523174    -0.22970
C701        C  0.25544928  0.51942012  0.36074708    -0.05810
C702        C  0.24871651  0.49158266  0.34699935     0.00120
C703        C  0.24197637  0.96637290  0.36586854    -0.08450
C704        C  0.24128707  0.97056444  0.39741566    -0.05830
C705        C  0.24797116  0.49832400  0.41059537     0.00110
C706        C  0.25546917  0.52313997  0.39225210    -0.08360
C707        C  0.26300407  0.55349574  0.40602580     0.62020
H708        H  0.26098679  0.53851625  0.34662145     0.12710
H709        H  0.23597578  0.95195156  0.41232049     0.12730
C710        C  0.23578839  0.93507015  0.35346666     0.62250
F711        F  0.26829660  0.57519453  0.38417267    -0.22910
F712        F  0.28868577  0.55064379  0.42359483    -0.20240
F713        F  0.23919734  0.56352133  0.42387813    -0.19920
F714        F  0.26091967  0.92432813  0.33797636    -0.19970
F715        F  0.21111387  0.93614468  0.33439831    -0.20290
F716        F  0.22952102  0.91453900  0.37617899    -0.22970
C717        C  0.23416040  0.51809916  0.14656409    -0.05810
C718        C  0.24781244  0.99256929  0.15997458     0.00120
C719        C  0.26164757  0.97028078  0.14118354    -0.08450
C720        C  0.26098508  0.97448883  0.10959546    -0.05830
C721        C  0.24674225  0.99974676  0.09639750     0.00110
C722        C  0.23334803  0.52205592  0.11510624    -0.08360
C723        C  0.21867169  0.55014803  0.10190580     0.62020
H724        H  0.22367727  0.53496571  0.16103197     0.12710
H725        H  0.27121506  0.95776002  0.09478175     0.12730
C726        C  0.27757510  0.94253176  0.15410528     0.62250
F727        F  0.21023858  0.57073763  0.12398928    -0.22910
F728        F  0.19302757  0.54213172  0.08630077    -0.20240
F729        F  0.23878306  0.56411599  0.08262157    -0.19920
F730        F  0.25670190  0.92402955  0.16780375    -0.19970
F731        F  0.29894803  0.95112360  0.17503221    -0.20290
F732        F  0.29226992  0.92584150  0.13192301    -0.22970
C733        C  0.49130044  0.77736879  0.35646337    -0.05810
C734        C  0.00826162  0.75443666  0.34258007     0.00120
C735        C  0.02367863  0.73279436  0.36048764    -0.08450
C736        C  0.02074297  0.73452965  0.39210346    -0.05830
C737        C  0.00345303  0.75742512  0.40639827     0.00110
C738        C  0.48882263  0.77986704  0.38799597    -0.08360
C739        C  0.46951241  0.80657851  0.39854297     0.62020
H740        H  0.47969058  0.79380862  0.34223263     0.12710
H741        H  0.03227737  0.71788960  0.40605219     0.12730
C742        C  0.04236464  0.70751995  0.34626618     0.62250
F743        F  0.44061089  0.80377469  0.38710869    -0.22910
F744        F  0.46715763  0.80966136  0.42924739    -0.20240
F745        F  0.48166635  0.83292082  0.38731114    -0.19920
F746        F  0.06652281  0.71951973  0.33072679    -0.19970
F747        F  0.02466109  0.69139320  0.32649628    -0.20290
F748        F  0.05376145  0.68762616  0.36770313    -0.22970
C749        C  0.49198311  0.77338747  0.10834199    -0.05810
C750        C  0.50011345  0.74635376  0.09335539     0.00120
C751        C  0.00724539  0.72024351  0.11108900    -0.08450
C752        C  0.00801306  0.72308268  0.14280161    -0.05830
C753        C  0.00043801  0.75024159  0.15720453     0.00110
C754        C  0.49152986  0.77561196  0.13997684    -0.08360
C755        C  0.48169254  0.80489718  0.15509904     0.62020
H756        H  0.48563826  0.79301040  0.09507270     0.12710
H757        H  0.01414309  0.70390420  0.15684685     0.12730
C758        C  0.01372371  0.68940475  0.09730677     0.62250
F759        F  0.47466839  0.82725331  0.13426116    -0.22910
F760        F  0.50463459  0.81521328  0.17335655    -0.20240
F761        F  0.45627016  0.79994853  0.17251493    -0.19920
F762        F  0.03832343  0.69079871  0.07817406    -0.19970
F763        F  0.98869925  0.67991969  0.08148845    -0.20290
F764        F  0.02021374  0.66776377  0.11906260    -0.22970
C765        C  0.14152481  0.99742921  0.22474634    -0.05810
C766        C  0.15552028  0.99825498  0.25295596     0.00120
C767        C  0.13795836  0.50204418  0.27931592    -0.08450
C768        C  0.10628383  0.50319113  0.27668209    -0.05830
C769        C  0.09168594  0.00166330  0.24841893     0.00110
C770        C  0.10989230  0.99969028  0.22168660    -0.08360
C771        C  0.09678181  0.00027524  0.18990811     0.62020
H772        H  0.15586693  0.99517821  0.20497707     0.12710
H773        H  0.09272581  0.50541222  0.29695796     0.12730
C774        C  0.15284255  0.50482095  0.31000190     0.62250
F775        F  0.11906868  0.49928777  0.16788665    -0.22910
F776        F  0.08022489  0.52668422  0.18558226    -0.20240
F777        F  0.07858285  0.97558326  0.18558064    -0.19920
F778        F  0.17147396  0.52959880  0.31016264    -0.19970
F779        F  0.16991215  0.97912401  0.31591022    -0.20290
F780        F  0.13182961  0.00838128  0.33299798    -0.22970
C781        C  0.39242920  0.97392862  0.26462823    -0.05810
C782        C  0.40415480  0.49691751  0.24606921     0.00120
C783        C  0.38393355  0.51317724  0.22673115    -0.08450
C784        C  0.35294117  0.50732383  0.22863276    -0.05830
C785        C  0.34116012  0.48595869  0.24849039     0.00110
C786        C  0.36117402  0.96779726  0.26584812    -0.08360
C787        C  0.34962510  0.94253396  0.28574150     0.62020
H788        H  0.40807146  0.96069196  0.27822875     0.12710
H789        H  0.33709555  0.52079057  0.21547151     0.12730
C790        C  0.39272127  0.54061767  0.20842551     0.62250
F791        F  0.37279339  0.92822782  0.30143575    -0.22910
F792        F  0.33572671  0.92116711  0.26801230    -0.20240
F793        F  0.32904354  0.95394591  0.30652113    -0.19920
F794        F  0.41923384  0.53606461  0.19256446    -0.19970
F795        F  0.39533113  0.56439365  0.22813861    -0.20290
F796        F  0.37082902  0.54850808  0.18740197    -0.22970
C797        C  0.47214011  0.89468970  0.24865375    -0.05810
C798        C  0.99951590  0.90990634  0.24820168     0.00120
C799        C  0.02707280  0.89355410  0.24865872    -0.08450
C800        C  0.02635113  0.86185284  0.24876926    -0.05830
C801        C  0.99893206  0.84600678  0.24900477     0.00050
C802        C  0.47107752  0.86292877  0.24932461    -0.08360
C803        C  0.44018628  0.84829368  0.25062421     0.62020
H804        H  0.45148095  0.90814814  0.24866874     0.12710
H805        H  0.04750343  0.84926538  0.24885224     0.12730
C806        C  0.05703279  0.90978631  0.24922839     0.62250
F807        F  0.41680757  0.86945571  0.25106831    -0.22910
F808        F  0.43778287  0.83112168  0.27663656    -0.20240
F809        F  0.43614585  0.83034878  0.22547869    -0.19920
F810        F  0.05842408  0.92783573  0.27464467    -0.19970
F811        F  0.05961865  0.92765031  0.22375119    -0.20290
F812        F  0.08141751  0.88983344  0.24985143    -0.22970
C813        C  0.03069115  0.60820590  0.25187932    -0.05810
C814        C  0.50210136  0.59534545  0.24901697     0.00120
C815        C  0.47636270  0.61417021  0.24695287    -0.08450
C816        C  0.47965657  0.64544861  0.24801926    -0.05830
C817        C  0.50812379  0.65895283  0.25048026     0.00110
C818        C  0.03439147  0.63988133  0.25232662    -0.08360
C819        C  0.06610456  0.65232772  0.25462229     0.62020
H820        H  0.05012756  0.59311410  0.25340517     0.12710
H821        H  0.45958710  0.65957890  0.24619091     0.12730
C822        C  0.44563821  0.60095081  0.24219071     0.62250
F823        F  0.08779295  0.62957966  0.25705966    -0.22910
F824        F  0.06832030  0.67040094  0.27993482    -0.20240
F825        F  0.07266662  0.66893845  0.22900516    -0.19920
F826        F  0.43938054  0.58081633  0.26524094    -0.19970
F827        F  0.44601582  0.58620091  0.21472101    -0.20290
F828        F  0.42285748  0.62274261  0.24160403    -0.22970
O829        O  0.49769469  0.95720926  0.77309050    -0.72970
O830        O  0.49812772  0.54771187  0.77347272    -0.73950
O831        O  0.45142747  0.50235888  0.77220864    -0.62570
O832        O  0.04312850  0.00186757  0.77330610    -0.70980
O833        O  0.04326965  0.00245661  0.72349570    -0.70530
O834        O  0.45265681  0.50219288  0.72223696    -0.61790
O835        O  0.99845795  0.54818645  0.72330899    -0.74290
O836        O  0.99875688  0.95727876  0.72289707    -0.73070
Cu837      Cu  0.49743896  0.50237745  0.77478922     1.04560
Cu838      Cu  0.99818526  0.00264691  0.72128329     1.04330
C839        C  0.99860614  0.94306148  0.74802312     0.93230
C840        C  0.49950488  0.56214304  0.74853584     0.92370
C841        C  0.43756021  0.50148214  0.74683012     0.84510
C842        C  0.05778877  0.00208423  0.74830661     0.90780
O843        O  0.48275924  0.70683811  0.75190705    -0.72970
O844        O  0.47706952  0.79652669  0.75022690    -0.73950
O845        O  0.47761602  0.75071541  0.70584122    -0.62570
O846        O  0.48196816  0.75257004  0.79609714    -0.70980
O847        O  0.03205023  0.75359258  0.79401955    -0.70530
O848        O  0.02769225  0.75250396  0.70331635    -0.61790
O849        O  0.02677515  0.79878413  0.74822447    -0.74290
O850        O  0.03253748  0.70770207  0.74914091    -0.73070
Cu851      Cu  0.47820068  0.75156607  0.75110674     1.04560
Cu852      Cu  0.03157553  0.75327351  0.74857848     1.04330
C853        C  0.00815700  0.69273662  0.75064701     0.93230
C854        C  0.00090983  0.81219938  0.74914499     0.92370
C855        C  0.00197152  0.75131096  0.69037771     0.84510
C856        C  0.00755725  0.75317875  0.80931431     0.90780
O857        O  0.24737081  0.96586713  0.79872369    -0.72970
O858        O  0.24673150  0.96622273  0.70768773    -0.73950
O859        O  0.29260662  0.96215416  0.75259805    -0.62570
O860        O  0.20148441  0.96958626  0.75363249    -0.70980
O861        O  0.20433284  0.51960544  0.75395092    -0.70530
O862        O  0.29432850  0.51212967  0.75266885    -0.61790
O863        O  0.24911529  0.51608855  0.70828988    -0.74290
O864        O  0.24980105  0.51557789  0.79855296    -0.73070
Cu865      Cu  0.24689694  0.96415017  0.75322772     1.04560
Cu866      Cu  0.24952530  0.51750156  0.75343648     1.04330
C867        C  0.24860611  0.99073225  0.81318842     0.93230
C868        C  0.24806878  0.99134879  0.69356231     0.92370
C869        C  0.30781019  0.98641423  0.75190378     0.84510
C870        C  0.18870231  0.99567555  0.75384826     0.90780
O871        O  0.22101244  0.54716727  0.50123852    -0.72970
O872        O  0.22241099  0.95697948  0.50464033    -0.73950
O873        O  0.22161753  0.00320534  0.54868967    -0.62570
O874        O  0.22220545  0.50026380  0.95777670    -0.70980
O875        O  0.27237507  0.50126457  0.95811321    -0.70530
O876        O  0.27175113  0.00159228  0.54872350    -0.61790
O877        O  0.27223700  0.95613334  0.50363931    -0.74290
O878        O  0.27091648  0.54736683  0.00244604    -0.73070
Cu879      Cu  0.22011545  0.00200012  0.50314671     1.04560
Cu880      Cu  0.27359064  0.50167933  0.00331556     1.04330
C881        C  0.24558869  0.56172601  0.00097665     0.93230
C882        C  0.24721342  0.94199412  0.50413901     0.92370
C883        C  0.24664674  0.00200981  0.56302749     0.84510
C884        C  0.24746513  0.50030049  0.94373893     0.90780
O885        O  0.00175479  0.72325769  0.54372954    -0.72970
O886        O  0.00064650  0.72980453  0.95281966    -0.73950
O887        O  0.04680120  0.72568140  0.99757548    -0.62570
O888        O  0.45605600  0.72674397  0.49927388    -0.70980
O889        O  0.45619762  0.77679481  0.50048551    -0.70530
O890        O  0.04703469  0.77559664  0.00161614    -0.61790
O891        O  0.00326108  0.77946189  0.95605286    -0.74290
O892        O  0.50085679  0.77302759  0.54629838    -0.73070
Cu893      Cu  0.00134785  0.72460668  0.99819774     1.04560
Cu894      Cu  0.50179309  0.77792316  0.50126256     1.04330
C895        C  0.50103306  0.74733734  0.55954446     0.93230
C896        C  0.00182744  0.75570890  0.93998735     0.92370
C897        C  0.06120333  0.75036708  0.99943783     0.84510
C898        C  0.44180197  0.75200500  0.50003407     0.90780
O899        O  0.24959666  0.70533810  0.52174438    -0.72970
O900        O  0.25084285  0.79584270  0.52624676    -0.73950
O901        O  0.20512771  0.75177009  0.52176249    -0.62570
O902        O  0.29546564  0.74921950  0.52651513    -0.70980
O903        O  0.29783125  0.75184202  0.97660623    -0.70530
O904        O  0.20732493  0.75356149  0.97180299    -0.61790
O905        O  0.25280085  0.79799650  0.97611954    -0.74290
O906        O  0.25270351  0.70754746  0.97171872    -0.73070
Cu907      Cu  0.25017918  0.75046676  0.52581155     1.04560
Cu908      Cu  0.25278372  0.75284785  0.97231584     1.04330
C909        C  0.25101496  0.69221568  0.49607587     0.93230
C910        C  0.25199870  0.81111345  0.50178378     0.92370
C911        C  0.19184186  0.75283723  0.49616875     0.84510
C912        C  0.31103817  0.75016960  0.50225568     0.90780
C913        C  0.39387012  0.73589702  0.52354073    -0.05810
C914        C  0.40837445  0.75228586  0.50071962     0.00120
C915        C  0.39086006  0.76750217  0.97861396    -0.08450
C916        C  0.35928865  0.76609852  0.98022606    -0.05830
C917        C  0.34456394  0.75028512  0.50329458     0.00110
C918        C  0.36208687  0.73483387  0.52554713    -0.08360
C919        C  0.34770585  0.71701254  0.55105216     0.62020
H920        H  0.40777930  0.72428116  0.54012548     0.12710
H921        H  0.34575672  0.77783595  0.96343988     0.12730
C922        C  0.40546506  0.78458045  0.95297828     0.62250
F923        F  0.36902553  0.70097194  0.56768366    -0.22910
F924        F  0.32752278  0.69654074  0.53949531    -0.20240
F925        F  0.33270928  0.73651624  0.57053489    -0.19920
F926        F  0.42595104  0.76578315  0.93827816    -0.19970
F927        F  0.42001135  0.80939146  0.96449915    -0.20290
F928        F  0.38455541  0.79477100  0.93193321    -0.22970
C929        C  0.10877942  0.76675241  0.97579370    -0.05810
C930        C  0.09456082  0.75000157  0.49849810     0.00120
C931        C  0.11219659  0.73424224  0.52011748    -0.08450
C932        C  0.14380994  0.73571130  0.51819443    -0.05830
C933        C  0.15829902  0.75221267  0.49534921     0.00110
C934        C  0.14050630  0.76797104  0.97354086    -0.08360
C935        C  0.15460832  0.78646350  0.94839012     0.62020
H936        H  0.09468313  0.77864726  0.95955959     0.12710
H937        H  0.15756872  0.72365078  0.53458177     0.12730
C938        C  0.09766710  0.71672811  0.54563070     0.62250
F939        F  0.13306455  0.80250708  0.93204507    -0.22910
F940        F  0.16986685  0.76754781  0.92853246    -0.20240
F941        F  0.17448183  0.80697813  0.96043422    -0.19920
F942        F  0.08213681  0.69260311  0.53392087    -0.19970
F943        F  0.07789373  0.73547205  0.56134025    -0.20290
F944        F  0.11883286  0.70547459  0.56587992    -0.22970
C945        C  0.27544181  0.89293748  0.50597448    -0.05810
C946        C  0.24724261  0.90815508  0.50398515     0.00120
C947        C  0.22048928  0.89058015  0.00136300    -0.08450
C948        C  0.22330829  0.85889262  0.00119860    -0.05830
C949        C  0.25138226  0.84428127  0.50304300     0.00110
C950        C  0.27794641  0.86124669  0.50531816    -0.08360
C951        C  0.30873035  0.84572374  0.50664600     0.62020
H952        H  0.29578675  0.90602648  0.50786232     0.12710
H953        H  0.20346340  0.84501892  0.99941822     0.12730
C954        C  0.18895879  0.90449096  0.99830881     0.62250
F955        F  0.33192812  0.86619413  0.00876641    -0.22910
F956        F  0.31327749  0.82876711  0.98077311    -0.20240
F957        F  0.31014754  0.82688238  0.53156393    -0.19920
F958        F  0.18768894  0.92286885  0.97302091    -0.19970
F959        F  0.18181630  0.92105426  0.52390206    -0.20290
F960        F  0.16697802  0.88286610  0.49501406    -0.22970
C961        C  0.22408715  0.64564383  0.50781662    -0.05810
C962        C  0.24942034  0.65901000  0.49483772     0.00120
C963        C  0.27229454  0.64063027  0.98171439    -0.08450
C964        C  0.27027836  0.60905347  0.98466064    -0.05830
C965        C  0.24515583  0.59539389  0.49828465     0.00110
C966        C  0.22071825  0.61414310  0.50852529    -0.08360
C967        C  0.19099528  0.60161003  0.51983443     0.62020
H968        H  0.20646031  0.66037528  0.51675657     0.12710
H969        H  0.28818209  0.59472821  0.97566642     0.12730
C970        C  0.29865880  0.65431556  0.96478235     0.62250
F971        F  0.17135761  0.62409209  0.52991303    -0.22910
F972        F  0.19617032  0.58217121  0.54359340    -0.20240
F973        F  0.17679617  0.58647947  0.49669383    -0.19920
F974        F  0.31357337  0.67434735  0.98316760    -0.19970
F975        F  0.28807122  0.66946368  0.93949603    -0.20290
F976        F  0.31931559  0.63252870  0.95525585    -0.22970
C977        C  0.25543787  0.51940564  0.86075154    -0.05810
C978        C  0.24870723  0.49157020  0.84699886     0.00120
C979        C  0.24196441  0.96635747  0.86586318    -0.08450
C980        C  0.24127118  0.97054406  0.89741073    -0.05830
C981        C  0.24795455  0.49830131  0.91059542     0.00110
C982        C  0.25545436  0.52312044  0.89225707    -0.08360
C983        C  0.26298751  0.55347426  0.90603632     0.62020
H984        H  0.26097682  0.53850396  0.84662948     0.12710
H985        H  0.23595847  0.95192881  0.91231205     0.12730
C986        C  0.23577852  0.93505644  0.85345580     0.62250
F987        F  0.26828134  0.57517669  0.88418716    -0.22910
F988        F  0.28866786  0.55062031  0.92360702    -0.20240
F989        F  0.23917907  0.56349652  0.92388820    -0.19920
F990        F  0.26091222  0.92431694  0.83796770    -0.19970
F991        F  0.21110673  0.93613335  0.83438399    -0.20290
F992        F  0.22950810  0.91452195  0.87616420    -0.22970
C993        C  0.23416464  0.51810701  0.64656912    -0.05810
C994        C  0.24781642  0.99257555  0.65997573     0.00120
C995        C  0.26165260  0.97029028  0.64118169    -0.08450
C996        C  0.26099272  0.97450418  0.60959411    -0.05830
C997        C  0.24675130  0.99976489  0.59639956     0.00110
C998        C  0.23335518  0.52206988  0.61511238    -0.08360
C999        C  0.21868155  0.55016521  0.60191806     0.62020
H1000       H  0.22368010  0.53497062  0.66103943     0.12710
H1001       H  0.27122376  0.95777800  0.59477819     0.12730
C1002       C  0.27757828  0.94253874  0.65409998     0.62250
F1003       F  0.21024541  0.57074948  0.62400546    -0.22910
F1004       F  0.19303936  0.54215291  0.58630767    -0.20240
F1005       F  0.23879761  0.56413702  0.58264178    -0.19920
F1006       F  0.25670360  0.92403568  0.66779497    -0.19970
F1007       F  0.29895075  0.95112658  0.67502907    -0.20290
F1008       F  0.29227307  0.92585103  0.63191581    -0.22970
C1009       C  0.49129058  0.77736826  0.85646278    -0.05810
C1010       C  0.00825521  0.75443770  0.84258056     0.00120
C1011       C  0.02367161  0.73279570  0.86048902    -0.08450
C1012       C  0.02073212  0.73452956  0.89210453    -0.05830
C1013       C  0.00343853  0.75742300  0.90639820     0.00110
C1014       C  0.48880812  0.77986464  0.88799517    -0.08360
C1015       C  0.46949330  0.80657328  0.89854122     0.62020
H1016       H  0.47968106  0.79380771  0.84223135     0.12710
H1017       H  0.03226642  0.71789002  0.90605394     0.12730
C1018       C  0.04236101  0.70752303  0.84626880     0.62250
F1019       F  0.44059455  0.80376832  0.88710029    -0.22910
F1020       F  0.46713107  0.80965209  0.92924555    -0.20240
F1021       F  0.48164748  0.83291795  0.88731531    -0.19920
F1022       F  0.06651993  0.71952500  0.83073233    -0.19970
F1023       F  0.02466079  0.69139546  0.82649658    -0.20290
F1024       F  0.05375703  0.68762947  0.86770639    -0.22970
C1025       C  0.49199235  0.77338812  0.60834170    -0.05810
C1026       C  0.50012472  0.74635475  0.59335564     0.00120
C1027       C  0.00725460  0.72024417  0.61108946    -0.08450
C1028       C  0.00801923  0.72308293  0.64280218    -0.05830
C1029       C  0.00044267  0.75024166  0.65720471     0.00110
C1030       C  0.49153542  0.77561208  0.63997654    -0.08360
C1031       C  0.48169523  0.80489670  0.65509817     0.62020
H1032       H  0.48564866  0.79301110  0.59507191     0.12710
H1033       H  0.01414805  0.70390430  0.65684772     0.12730
C1034       C  0.01373360  0.68940552  0.59730728     0.62250
F1035       F  0.47467183  0.82725264  0.63425986    -0.22910
F1036       F  0.50463507  0.81521381  0.67335786    -0.20240
F1037       F  0.45627152  0.79994666  0.67251172    -0.19920
F1038       F  0.03833472  0.69079948  0.57817631    -0.19970
F1039       F  0.98871015  0.67992094  0.58148703    -0.20290
F1040       F  0.02022172  0.66776421  0.61906333    -0.22970
C1041       C  0.14152389  0.99742853  0.72474542    -0.05810
C1042       C  0.15551963  0.99825421  0.75295490     0.00120
C1043       C  0.13795794  0.50204444  0.77931496    -0.08450
C1044       C  0.10628337  0.50319177  0.77668136    -0.05830
C1045       C  0.09168525  0.00166376  0.74841834     0.00110
C1046       C  0.10989141  0.99969042  0.72168591    -0.08360
C1047       C  0.09678071  0.00027584  0.68990752     0.62020
H1048       H  0.15586580  0.99517706  0.70497605     0.12710
H1049       H  0.09272550  0.50541339  0.79695728     0.12730
C1050       C  0.15284229  0.50482189  0.81000083     0.62250
F1051       F  0.11906745  0.49928850  0.66788593    -0.22910
F1052       F  0.08022392  0.52668493  0.68558207    -0.20240
F1053       F  0.07858160  0.97558400  0.68557990    -0.19920
F1054       F  0.17147324  0.52960009  0.81016113    -0.19970
F1055       F  0.16991238  0.97912535  0.81590946    -0.20290
F1056       F  0.13182945  0.00838217  0.83299701    -0.22970
C1057       C  0.39242888  0.97392859  0.76462838    -0.05810
C1058       C  0.40415408  0.49691787  0.74606943     0.00120
C1059       C  0.38393242  0.51317784  0.72673196    -0.08450
C1060       C  0.35294001  0.50732457  0.72863443    -0.05830
C1061       C  0.34115950  0.48595876  0.74849172     0.00110
C1062       C  0.36117378  0.96779706  0.76584869    -0.08360
C1063       C  0.34962514  0.94253345  0.78574178     0.62020
H1064       H  0.40807140  0.96069177  0.77822845     0.12710
H1065       H  0.33709403  0.52079164  0.71547393     0.12730
C1066       C  0.39271988  0.54061803  0.70842575     0.62250
F1067       F  0.37279362  0.92822717  0.80143559    -0.22910
F1068       F  0.33572660  0.92116686  0.76801238    -0.20240
F1069       F  0.32904372  0.95394506  0.80652174    -0.19920
F1070       F  0.41923241  0.53606490  0.69256465    -0.19970
F1071       F  0.39532969  0.56439453  0.72813825    -0.20290
F1072       F  0.37082745  0.54850772  0.68740212    -0.22970
C1073       C  0.47213952  0.89469010  0.74865331    -0.05810
C1074       C  0.99951524  0.90990683  0.74820123     0.00120
C1075       C  0.02707218  0.89355465  0.74865846    -0.08450
C1076       C  0.02635058  0.86185338  0.74876901    -0.05830
C1077       C  0.99893154  0.84600726  0.74900435     0.00050
C1078       C  0.47107699  0.86292917  0.74932417    -0.08360
C1079       C  0.44018578  0.84829400  0.75062365     0.62020
H1080       H  0.45148033  0.90814850  0.74866819     0.12710
H1081       H  0.04750290  0.84926597  0.74885212     0.12730
C1082       C  0.05703213  0.90978692  0.74922829     0.62250
F1083       F  0.41680703  0.86945597  0.75106804    -0.22910
F1084       F  0.43778245  0.83112169  0.77663581    -0.20240
F1085       F  0.43614537  0.83034938  0.72547789    -0.19920
F1086       F  0.05842325  0.92783632  0.77464459    -0.19970
F1087       F  0.05961809  0.92765094  0.72375112    -0.20290
F1088       F  0.08141690  0.88983410  0.74985144    -0.22970
C1089       C  0.03069039  0.60820632  0.75187970    -0.05810
C1090       C  0.50210066  0.59534588  0.74901707     0.00120
C1091       C  0.47636201  0.61417065  0.74695291    -0.08450
C1092       C  0.47965589  0.64544905  0.74801967    -0.05830
C1093       C  0.50812310  0.65895326  0.75048102     0.00110
C1094       C  0.03439073  0.63988175  0.75232731    -0.08360
C1095       C  0.06610386  0.65232807  0.75462304     0.62020
H1096       H  0.05012679  0.59311450  0.75340546     0.12710
H1097       H  0.45958643  0.65957934  0.74619137     0.12730
C1098       C  0.44563751  0.60095128  0.74219050     0.62250
F1099       F  0.08779225  0.62957994  0.75705990    -0.22910
F1100       F  0.06831977  0.67040085  0.77993588    -0.20240
F1101       F  0.07266582  0.66893923  0.72900616    -0.19920
F1102       F  0.43937968  0.58081672  0.76524060    -0.19970
F1103       F  0.44601518  0.58620144  0.71472075    -0.20290
F1104       F  0.42285683  0.62274312  0.74160377    -0.22970
O1105       O  0.99769523  0.45720877  0.27309082    -0.72970
O1106       O  0.99812829  0.04771139  0.27347278    -0.73950
O1107       O  0.95142809  0.00235829  0.27220873    -0.62570
O1108       O  0.54312907  0.50186718  0.27330641    -0.70980
O1109       O  0.54327046  0.50245608  0.22349600    -0.70530
O1110       O  0.95265771  0.00219213  0.22223706    -0.61790
O1111       O  0.49845872  0.04818598  0.22330901    -0.74290
O1112       O  0.49875760  0.45727833  0.22289743    -0.73070
Cu1113     Cu  0.99743958  0.00237694  0.27478941     1.04560
Cu1114     Cu  0.49818608  0.50264646  0.22128352     1.04330
C1115       C  0.49860672  0.44306112  0.24802351     0.93230
C1116       C  0.99950553  0.06214249  0.24853585     0.92370
C1117       C  0.93756097  0.00148146  0.24683014     0.84510
C1118       C  0.55778946  0.50208373  0.24830698     0.90780
O1119       O  0.98275983  0.20683752  0.25190778    -0.72970
O1120       O  0.97706993  0.29652615  0.25022868    -0.73950
O1121       O  0.97761397  0.25071526  0.20584250    -0.62570
O1122       O  0.98197142  0.25256897  0.29609842    -0.70980
O1123       O  0.53205332  0.25359166  0.29401743    -0.70530
O1124       O  0.52768976  0.25250406  0.20331451    -0.61790
O1125       O  0.52677529  0.29878377  0.24822309    -0.74290
O1126       O  0.53253777  0.20770175  0.24913841    -0.73070
Cu1127     Cu  0.97820122  0.25156549  0.25110809     1.04560
Cu1128     Cu  0.53157576  0.25327315  0.24857641     1.04330
C1129       C  0.50815740  0.19273628  0.25064605     0.93230
C1130       C  0.50091003  0.31219904  0.24914534     0.92370
C1131       C  0.50196822  0.25131118  0.19037748     0.84510
C1132       C  0.50756139  0.25317758  0.30931387     0.90780
O1133       O  0.74737385  0.46587307  0.29872709    -0.72970
O1134       O  0.74672966  0.46622151  0.20768982    -0.73950
O1135       O  0.79260691  0.46215521  0.25259911    -0.62570
O1136       O  0.70148518  0.46958774  0.25363672    -0.70980
O1137       O  0.70433332  0.01960703  0.25394944    -0.70530
O1138       O  0.79432922  0.01213059  0.25266426    -0.61790
O1139       O  0.74911349  0.01608734  0.20828658    -0.74290
O1140       O  0.74980422  0.01558374  0.29855003    -0.73070
Cu1141     Cu  0.74689745  0.46415196  0.25323052     1.04560
Cu1142     Cu  0.74952591  0.01750330  0.25343330     1.04330
C1143       C  0.74861085  0.49074000  0.31318876     0.93230
C1144       C  0.74806606  0.49134622  0.19356153     0.92370
C1145       C  0.80781069  0.48641501  0.25190200     0.84510
C1146       C  0.68870293  0.49567691  0.25384960     0.90780
O1147       O  0.72098690  0.04713237  0.00123731    -0.72970
O1148       O  0.72240768  0.45694571  0.00464302    -0.73950
O1149       O  0.72160518  0.50317324  0.04868950    -0.62570
O1150       O  0.72222144  0.00029875  0.45777594    -0.70980
O1151       O  0.77239133  0.00129071  0.45811402    -0.70530
O1152       O  0.77173912  0.50157169  0.04872087    -0.61790
O1153       O  0.77223356  0.45610770  0.00364092    -0.74290
O1154       O  0.77094253  0.04739099  0.50245147    -0.73070
Cu1155     Cu  0.72010116  0.50196541  0.00314740     1.04560
Cu1156     Cu  0.77360501  0.00170327  0.50331738     1.04330
C1157       C  0.74561782  0.06175550  0.50098277     0.93230
C1158       C  0.74721237  0.44196424  0.00414221     0.92370
C1159       C  0.74663541  0.50198538  0.06302578     0.84510
C1160       C  0.74748161  0.00032929  0.44373887     0.90780
O1161       O  0.50174214  0.22325600  0.04372943    -0.72970
O1162       O  0.50066052  0.22980668  0.45282008    -0.73950
O1163       O  0.54681552  0.22567627  0.49757671    -0.62570
O1164       O  0.95604346  0.22673407  0.99927321    -0.70980
O1165       O  0.95617626  0.27678510  0.00048409    -0.70530
O1166       O  0.54705532  0.27559143  0.50161706    -0.61790
O1167       O  0.50328235  0.27946349  0.45605329    -0.74290
O1168       O  0.00083662  0.27302596  0.04629757    -0.73070
Cu1169     Cu  0.50136096  0.22460871  0.49819828     1.04560
Cu1170     Cu  0.00177211  0.27792113  0.00126179     1.04330
C1171       C  0.00101795  0.24733589  0.05954405     0.93230
C1172       C  0.50184450  0.25571083  0.43998771     0.92370
C1173       C  0.56122084  0.25036021  0.49943894     0.84510
C1174       C  0.94178501  0.25199257  0.00003255     0.90780
O1175       O  0.74956299  0.20530471  0.02172738    -0.72970
O1176       O  0.75084328  0.29580864  0.02624653    -0.73950
O1177       O  0.70511219  0.25175360  0.02175509    -0.62570
O1178       O  0.79544897  0.24917107  0.02650539    -0.70980
O1179       O  0.79784881  0.25188267  0.47661556    -0.70530
O1180       O  0.70734337  0.25356937  0.47181089    -0.61790
O1181       O  0.75280185  0.29802253  0.47611986    -0.74290
O1182       O  0.75273891  0.20757295  0.47173585    -0.73070
Cu1183     Cu  0.75016289  0.25043299  0.02580280     1.04560
Cu1184     Cu  0.75280172  0.25287293  0.47232460     1.04330
C1185       C  0.75097520  0.19218641  0.99605650     0.93230
C1186       C  0.75200306  0.31108321  0.00178613     0.92370
C1187       C  0.69182492  0.25282972  0.99616241     0.84510
C1188       C  0.81102140  0.25012466  0.00224613     0.90780
C1189       C  0.89385615  0.23587701  0.02353933    -0.05810
C1190       C  0.90835753  0.25226638  0.00071673     0.00120
C1191       C  0.89087961  0.26753117  0.47862088    -0.08450
C1192       C  0.85930773  0.26613926  0.48023718    -0.05830
C1193       C  0.84454747  0.25024472  0.00328531     0.00110
C1194       C  0.86207318  0.23480510  0.02554381    -0.08360
C1195       C  0.84769604  0.21698898  0.05105479     0.62020
H1196       H  0.90776746  0.22426851  0.04012736     0.12710
H1197       H  0.84577736  0.27788382  0.46345463     0.12730
C1198       C  0.90548735  0.28460523  0.45298404     0.62250
F1199       F  0.86901939  0.20096100  0.06769356    -0.22910
F1200       F  0.82751984  0.19650672  0.03950475    -0.20240
F1201       F  0.83269284  0.23649571  0.07052957    -0.19920
F1202       F  0.92596675  0.26580198  0.43828232    -0.19970
F1203       F  0.92004169  0.30941203  0.46450351    -0.20290
F1204       F  0.88457868  0.29480136  0.43194059    -0.22970
C1205       C  0.60879658  0.26674201  0.47579293    -0.05810
C1206       C  0.59454350  0.25000969  0.99849875     0.00120
C1207       C  0.61217894  0.23424739  0.02011621    -0.08450
C1208       C  0.64379208  0.23571295  0.01819118    -0.05830
C1209       C  0.65828176  0.25221351  0.99534586     0.00110
C1210       C  0.64052322  0.26796456  0.47354216    -0.08360
C1211       C  0.65462442  0.28645709  0.44839094     0.62020
H1212       H  0.59469999  0.27863442  0.45955731     0.12710
H1213       H  0.65755029  0.22364885  0.03457640     0.12730
C1214       C  0.59764964  0.21673247  0.04562902     0.62250
F1215       F  0.63307968  0.30249623  0.43204296    -0.22910
F1216       F  0.66988712  0.26754188  0.42853593    -0.20240
F1217       F  0.67449397  0.30697574  0.46043484    -0.19920
F1218       F  0.58212000  0.19260737  0.03391858    -0.19970
F1219       F  0.57787596  0.23547571  0.06133899    -0.20290
F1220       F  0.61881550  0.20547891  0.06587814    -0.22970
C1221       C  0.77544558  0.39290887  0.00598049    -0.05810
C1222       C  0.74724537  0.40812489  0.00399059     0.00120
C1223       C  0.72048552  0.39061225  0.50135631    -0.08450
C1224       C  0.72330274  0.35892423  0.50119067    -0.05830
C1225       C  0.75138827  0.34425095  0.00305011     0.00110
C1226       C  0.77795182  0.36121766  0.00532476    -0.08360
C1227       C  0.80873632  0.34569587  0.00665243     0.62020
H1228       H  0.79578962  0.40599940  0.00786759     0.12710
H1229       H  0.70345714  0.34505162  0.49940966     0.12730
C1230       C  0.68895622  0.40452599  0.49830331     0.62250
F1231       F  0.83192310  0.36622096  0.50876001    -0.22910
F1232       F  0.81327079  0.32879490  0.48076672    -0.20240
F1233       F  0.81015431  0.32685444  0.03157029    -0.19920
F1234       F  0.68768759  0.42290572  0.47301669    -0.19970
F1235       F  0.68181695  0.42102010  0.02390632    -0.20290
F1236       F  0.66698255  0.38282903  0.99502038    -0.22970
C1237       C  0.72403505  0.14561351  0.00777548    -0.05810
C1238       C  0.74937621  0.15898091  0.99481292     0.00120
C1239       C  0.77232847  0.14065851  0.48172130    -0.08450
C1240       C  0.77030960  0.10908130  0.48466397    -0.05830
C1241       C  0.74511985  0.09536422  0.99827018     0.00110
C1242       C  0.72067163  0.11411152  0.00849021    -0.08360
C1243       C  0.69094574  0.10157471  0.01978845     0.62020
H1244       H  0.70640111  0.16034433  0.01670257     0.12710
H1245       H  0.78820503  0.09475437  0.47565596     0.12730
C1246       C  0.79868266  0.15434254  0.46477213     0.62250
F1247       F  0.67129207  0.12405702  0.02983588    -0.22910
F1248       F  0.69611276  0.08215563  0.04356644    -0.20240
F1249       F  0.67676780  0.08642133  0.99664959    -0.19920
F1250       F  0.81361088  0.17437310  0.48314754    -0.19970
F1251       F  0.78807957  0.16949155  0.43949273    -0.20290
F1252       F  0.81933173  0.13255447  0.45523183    -0.22970
C1253       C  0.75544928  0.01942011  0.36074710    -0.05810
C1254       C  0.74871650  0.99158266  0.34699937     0.00120
C1255       C  0.74197638  0.46637293  0.36586855    -0.08450
C1256       C  0.74128710  0.47056448  0.39741567    -0.05830
C1257       C  0.74797115  0.99832400  0.41059539     0.00110
C1258       C  0.75546917  0.02313997  0.39225213    -0.08360
C1259       C  0.76300408  0.05349573  0.40602582     0.62020
H1260       H  0.76098680  0.03851624  0.34662147     0.12710
H1261       H  0.73597582  0.45195159  0.41232051     0.12730
C1262       C  0.73578840  0.43507018  0.35346668     0.62250
F1263       F  0.76829662  0.07519452  0.38417269    -0.22910
F1264       F  0.78868577  0.05064378  0.42359486    -0.20240
F1265       F  0.73919735  0.06352133  0.42387815    -0.19920
F1266       F  0.76091967  0.42432816  0.33797637    -0.19970
F1267       F  0.71111387  0.43614470  0.33439833    -0.20290
F1268       F  0.72952103  0.41453903  0.37617902    -0.22970
C1269       C  0.73416038  0.01809919  0.14656411    -0.05810
C1270       C  0.74781244  0.49256925  0.15997458     0.00120
C1271       C  0.76164759  0.47028074  0.14118355    -0.08450
C1272       C  0.76098511  0.47448878  0.10959546    -0.05830
C1273       C  0.74674227  0.49974671  0.09639750     0.00110
C1274       C  0.73334801  0.02205595  0.11510626    -0.08360
C1275       C  0.71867169  0.05014808  0.10190583     0.62020
H1276       H  0.72367726  0.03496574  0.16103199     0.12710
H1277       H  0.77121510  0.45775998  0.09478176     0.12730
C1278       C  0.77757513  0.44253172  0.15410530     0.62250
F1279       F  0.71023857  0.07073767  0.12398931    -0.22910
F1280       F  0.69302757  0.04213179  0.08630078    -0.20240
F1281       F  0.73878307  0.06411604  0.08262161    -0.19920
F1282       F  0.75670192  0.42402952  0.16780376    -0.19970
F1283       F  0.79894804  0.45112357  0.17503223    -0.20290
F1284       F  0.79226995  0.42584146  0.13192303    -0.22970
C1285       C  0.99130064  0.27736872  0.35646339    -0.05810
C1286       C  0.50826192  0.25443653  0.34258007     0.00120
C1287       C  0.52367859  0.23279388  0.36048750    -0.08450
C1288       C  0.52074293  0.23452901  0.39210334    -0.05830
C1289       C  0.50345334  0.25742467  0.40639828     0.00110
C1290       C  0.98882287  0.27986700  0.38799599    -0.08360
C1291       C  0.96951266  0.30657849  0.39854298     0.62020
H1292       H  0.97969078  0.29380854  0.34223265     0.12710
H1293       H  0.53227709  0.21788871  0.40605198     0.12730
C1294       C  0.54236431  0.20751936  0.34626587     0.62250
F1295       F  0.94061115  0.30377471  0.38710866    -0.22910
F1296       F  0.96715784  0.30966133  0.42924739    -0.20240
F1297       F  0.98166665  0.33292078  0.38731117    -0.19920
F1298       F  0.56652259  0.21951898  0.33072652    -0.19970
F1299       F  0.52466056  0.19139292  0.32649589    -0.20290
F1300       F  0.55376094  0.18762532  0.36770269    -0.22970
C1301       C  0.99198279  0.27338750  0.10834201    -0.05810
C1302       C  0.00011311  0.24635377  0.09335545     0.00120
C1303       C  0.50724469  0.22024363  0.11108911    -0.08450
C1304       C  0.50801222  0.22308285  0.14280172    -0.05830
C1305       C  0.50043723  0.25024182  0.15720456     0.00110
C1306       C  0.99152950  0.27561201  0.13997686    -0.08360
C1307       C  0.98169221  0.30489725  0.15509905     0.62020
H1308       H  0.98563802  0.29301044  0.09507269     0.12710
H1309       H  0.51414216  0.20390439  0.15684701     0.12730
C1310       C  0.51372302  0.18940483  0.09730696     0.62250
F1311       F  0.97466808  0.32725337  0.13426115    -0.22910
F1312       F  0.00463428  0.31521335  0.17335653    -0.20240
F1313       F  0.95626984  0.29994865  0.17251496    -0.19920
F1314       F  0.53832285  0.19079872  0.07817438    -0.19970
F1315       F  0.48869863  0.17991981  0.08148852    -0.20290
F1316       F  0.52021288  0.16776388  0.11906286    -0.22970
C1317       C  0.64152479  0.49742920  0.22474633    -0.05810
C1318       C  0.65552026  0.49825497  0.25295595     0.00120
C1319       C  0.63795835  0.00204430  0.27931591    -0.08450
C1320       C  0.60628382  0.00319129  0.27668208    -0.05830
C1321       C  0.59168592  0.50166331  0.24841892     0.00110
C1322       C  0.60989228  0.49969029  0.22168659    -0.08360
C1323       C  0.59678178  0.50027525  0.18990810     0.62020
H1324       H  0.65586690  0.49517819  0.20497706     0.12710
H1325       H  0.59272580  0.00541239  0.29695794     0.12730
C1326       C  0.65284254  0.00482105  0.31000190     0.62250
F1327       F  0.61906870  0.99928786  0.16788665    -0.22910
F1328       F  0.58022493  0.02668435  0.18558223    -0.20240
F1329       F  0.57858280  0.47558328  0.18558064    -0.19920
F1330       F  0.67147398  0.02959888  0.31016265    -0.19970
F1331       F  0.66991213  0.47912400  0.31591021    -0.20290
F1332       F  0.63182960  0.50838128  0.33299797    -0.22970
C1333       C  0.89242918  0.47392859  0.26462827    -0.05810
C1334       C  0.90415482  0.99691733  0.24606918     0.00120
C1335       C  0.88393358  0.01317706  0.22673111    -0.08450
C1336       C  0.85294119  0.00732370  0.22863275    -0.05830
C1337       C  0.84116012  0.98595859  0.24849040     0.00110
C1338       C  0.86117400  0.46779723  0.26584814    -0.08360
C1339       C  0.84962508  0.44253391  0.28574147     0.62020
H1340       H  0.90807144  0.46069192  0.27822878     0.12710
H1341       H  0.83709558  0.02079045  0.21547151     0.12730
C1342       C  0.89272131  0.04061747  0.20842544     0.62250
F1343       F  0.87279336  0.42822775  0.30143572    -0.22910
F1344       F  0.83572669  0.42116709  0.26801225    -0.20240
F1345       F  0.82904351  0.45394583  0.30652112    -0.19920
F1346       F  0.91923392  0.03606444  0.19256447    -0.19970
F1347       F  0.89533106  0.06439350  0.22813850    -0.20290
F1348       F  0.87082909  0.04850779  0.18740182    -0.22970
C1349       C  0.97214001  0.39468963  0.24865393    -0.05810
C1350       C  0.49951572  0.40990648  0.24820171     0.00120
C1351       C  0.52707260  0.39355421  0.24865875    -0.08450
C1352       C  0.52635090  0.36185296  0.24876934    -0.05830
C1353       C  0.49893181  0.34600692  0.24900490     0.00050
C1354       C  0.97107740  0.36292869  0.24932482    -0.08360
C1355       C  0.94018616  0.34829362  0.25062449     0.62020
H1356       H  0.95148086  0.40814807  0.24866894     0.12710
H1357       H  0.54750318  0.34926548  0.24885233     0.12730
C1358       C  0.55703262  0.40978639  0.24922834     0.62250
F1359       F  0.91680746  0.36945566  0.25106863    -0.22910
F1360       F  0.93778280  0.33112163  0.27663685    -0.20240
F1361       F  0.93614568  0.33034871  0.22547899    -0.19920
F1362       F  0.55842396  0.42783585  0.27464458    -0.19970
F1363       F  0.55961846  0.42765033  0.22375111    -0.20290
F1364       F  0.58141732  0.38983349  0.24985138    -0.22970
C1365       C  0.53069097  0.10820607  0.25187913    -0.05810
C1366       C  0.00210128  0.09534535  0.24901694     0.00120
C1367       C  0.97636261  0.11417010  0.24695279    -0.08450
C1368       C  0.97965646  0.14544851  0.24801915    -0.05830
C1369       C  0.00812367  0.15895274  0.25048017     0.00110
C1370       C  0.53439124  0.13988150  0.25232637    -0.08360
C1371       C  0.56610433  0.15232794  0.25462185     0.62020
H1372       H  0.55012741  0.09311430  0.25340488     0.12710
H1373       H  0.95958700  0.15957879  0.24619077     0.12730
C1374       C  0.94563813  0.10095068  0.24219063     0.62250
F1375       F  0.58779277  0.12957991  0.25705912    -0.22910
F1376       F  0.56832020  0.17040119  0.27993434    -0.20240
F1377       F  0.57266623  0.16893864  0.22900466    -0.19920
F1378       F  0.93938046  0.08081620  0.26524086    -0.19970
F1379       F  0.94601576  0.08620076  0.21472093    -0.20290
F1380       F  0.92285739  0.12274247  0.24160392    -0.22970
O1381       O  0.99769462  0.45720920  0.77309047    -0.72970
O1382       O  0.99812764  0.04771178  0.77347272    -0.73950
O1383       O  0.95142748  0.00235872  0.77220861    -0.62570
O1384       O  0.54312849  0.50186758  0.77330611    -0.70980
O1385       O  0.54326962  0.50245657  0.72349570    -0.70530
O1386       O  0.95265684  0.00219270  0.72223693    -0.61790
O1387       O  0.49845784  0.04818648  0.72330895    -0.74290
O1388       O  0.49875674  0.45727883  0.72289712    -0.73070
Cu1389     Cu  0.99743897  0.00237736  0.77478920     1.04560
Cu1390     Cu  0.49818523  0.50264697  0.72128331     1.04330
C1391       C  0.49860599  0.44306156  0.74802317     0.93230
C1392       C  0.99950476  0.06214297  0.74853585     0.92370
C1393       C  0.93756023  0.00148196  0.74683009     0.84510
C1394       C  0.55778875  0.50208419  0.74830661     0.90780
O1395       O  0.98275912  0.20683805  0.75190713    -0.72970
O1396       O  0.97706942  0.29652664  0.75022707    -0.73950
O1397       O  0.97761572  0.25071540  0.70584133    -0.62570
O1398       O  0.98196831  0.25256994  0.79609728    -0.70980
O1399       O  0.53205033  0.25359251  0.79401938    -0.70530
O1400       O  0.52769165  0.25250415  0.70331622    -0.61790
O1401       O  0.52677489  0.29878421  0.74822444    -0.74290
O1402       O  0.53253720  0.20770215  0.74914062    -0.73070
Cu1403     Cu  0.97820059  0.25156602  0.75110687     1.04560
Cu1404     Cu  0.53157526  0.25327358  0.74857831     1.04330
C1405       C  0.50815672  0.19273670  0.75064685     0.93230
C1406       C  0.50090957  0.31219946  0.74914515     0.92370
C1407       C  0.50197084  0.25131119  0.69037773     0.84510
C1408       C  0.50755745  0.25317864  0.80931430     0.90780
O1409       O  0.74737083  0.46586715  0.79872369    -0.72970
O1410       O  0.74673151  0.46622273  0.70768773    -0.73950
O1411       O  0.79260663  0.46215422  0.75259804    -0.62570
O1412       O  0.70148442  0.46958623  0.75363249    -0.70980
O1413       O  0.70433287  0.01960548  0.75395095    -0.70530
O1414       O  0.79432853  0.01212962  0.75266887    -0.61790
O1415       O  0.74911532  0.01608856  0.70828991    -0.74290
O1416       O  0.74980108  0.01557787  0.79855299    -0.73070
Cu1417     Cu  0.74689696  0.46415019  0.75322772     1.04560
Cu1418     Cu  0.74952533  0.01750156  0.75343651     1.04330
C1419       C  0.74860611  0.49073227  0.81318841     0.93230
C1420       C  0.74806877  0.49134880  0.69356231     0.92370
C1421       C  0.80781018  0.48641430  0.75190377     0.84510
C1422       C  0.68870230  0.49567550  0.75384824     0.90780
O1423       O  0.72101250  0.04716731  0.50123854    -0.72970
O1424       O  0.72241100  0.45697950  0.50464033    -0.73950
O1425       O  0.72161755  0.50320535  0.54868967    -0.62570
O1426       O  0.72220541  0.00026380  0.95777671    -0.70980
O1427       O  0.77237503  0.00126451  0.95811322    -0.70530
O1428       O  0.77175115  0.50159226  0.54872351    -0.61790
O1429       O  0.77223701  0.45613333  0.50363931    -0.74290
O1430       O  0.77091649  0.04736679  0.00244601    -0.73070
Cu1431     Cu  0.72011548  0.50200014  0.50314671     1.04560
Cu1432     Cu  0.77359061  0.00167931  0.00331557     1.04330
C1433       C  0.74558872  0.06172600  0.00097660     0.93230
C1434       C  0.74721342  0.44199413  0.50413902     0.92370
C1435       C  0.74664676  0.50200981  0.56302749     0.84510
C1436       C  0.74746509  0.00030045  0.94373894     0.90780
O1437       O  0.50175441  0.22325761  0.54372964    -0.72970
O1438       O  0.50064686  0.22980410  0.95281973    -0.73950
O1439       O  0.54680129  0.22568090  0.99757590    -0.62570
O1440       O  0.95605614  0.22674397  0.49927383    -0.70980
O1441       O  0.95619774  0.27679481  0.50048544    -0.70530
O1442       O  0.54703498  0.27559615  0.00161640    -0.61790
O1443       O  0.50326172  0.27946144  0.95605283    -0.74290
O1444       O  0.00085680  0.27302763  0.54629840    -0.73070
Cu1445     Cu  0.50134790  0.22460645  0.99819785     1.04560
Cu1446     Cu  0.00179320  0.27792318  0.50126258     1.04330
C1447       C  0.00103304  0.24733738  0.55954448     0.93230
C1448       C  0.50182797  0.25570843  0.93998737     0.92370
C1449       C  0.56120352  0.25036653  0.99943823     0.84510
C1450       C  0.94180210  0.25200500  0.50003400     0.90780
O1451       O  0.74959696  0.20533807  0.52174471    -0.72970
O1452       O  0.75084289  0.29584269  0.52624707    -0.73950
O1453       O  0.70512785  0.25176988  0.52176295    -0.62570
O1454       O  0.79546582  0.24921961  0.52651533    -0.70980
O1455       O  0.79783142  0.25184219  0.97660623    -0.70530
O1456       O  0.70732506  0.25356129  0.97180320    -0.61790
O1457       O  0.75280086  0.29799648  0.97611964    -0.74290
O1458       O  0.75270381  0.20754745  0.97171875    -0.73070
Cu1459     Cu  0.75017936  0.25046672  0.52581189     1.04560
Cu1460     Cu  0.75278387  0.25284784  0.97231593     1.04330
C1461       C  0.75101525  0.19221566  0.49607620     0.93230
C1462       C  0.75199867  0.31111343  0.50178408     0.92370
C1463       C  0.69184196  0.25283694  0.49616923     0.84510
C1464       C  0.81103830  0.25016971  0.50225584     0.90780
C1465       C  0.89387028  0.23589701  0.52354069    -0.05810
C1466       C  0.90837458  0.25228585  0.50071957     0.00120
C1467       C  0.89086014  0.26750343  0.97861447    -0.08450
C1468       C  0.85928873  0.26609969  0.98022660    -0.05830
C1469       C  0.84456407  0.25028520  0.50329467     0.00110
C1470       C  0.86208703  0.23483390  0.52554716    -0.08360
C1471       C  0.84770605  0.21701256  0.55105220     0.62020
H1472       H  0.90777948  0.22428113  0.54012541     0.12710
H1473       H  0.84575672  0.27783761  0.96344083     0.12730
C1474       C  0.90546504  0.28458252  0.95297927     0.62250
F1475       F  0.86902575  0.20097189  0.56768363    -0.22910
F1476       F  0.82752291  0.19654081  0.53949538    -0.20240
F1477       F  0.83270957  0.23651626  0.57053501    -0.19920
F1478       F  0.92595042  0.26578540  0.93827811    -0.19970
F1479       F  0.92001197  0.30939283  0.96450082    -0.20290
F1480       F  0.88455523  0.29477429  0.93193492    -0.22970
C1481       C  0.60877954  0.26675178  0.97579402    -0.05810
C1482       C  0.59456091  0.25000087  0.49849850     0.00120
C1483       C  0.61219670  0.23424162  0.52011792    -0.08450
C1484       C  0.64381006  0.23571080  0.51819492    -0.05830
C1485       C  0.65829912  0.25221222  0.49534970     0.00110
C1486       C  0.64050640  0.26797053  0.97354116    -0.08360
C1487       C  0.65460832  0.28646306  0.94839042     0.62020
H1488       H  0.59468320  0.27864657  0.95955991     0.12710
H1489       H  0.65756887  0.22365037  0.53458230     0.12730
C1490       C  0.59766722  0.21672749  0.54563116     0.62250
F1491       F  0.63306447  0.30250657  0.93204541    -0.22910
F1492       F  0.66986690  0.26754746  0.92853273    -0.20240
F1493       F  0.67448175  0.30697778  0.96043451    -0.19920
F1494       F  0.58213688  0.19260252  0.53392135    -0.19970
F1495       F  0.57789388  0.23547144  0.56134074    -0.20290
F1496       F  0.61883300  0.20547394  0.56588035    -0.22970
C1497       C  0.77544180  0.39293748  0.50597459    -0.05810
C1498       C  0.74724261  0.40815508  0.50398523     0.00120
C1499       C  0.72048937  0.39058013  0.00136295    -0.08450
C1500       C  0.72330838  0.35889260  0.00119863    -0.05830
C1501       C  0.75138223  0.34428126  0.50304327     0.00110
C1502       C  0.77794639  0.36124668  0.50531835    -0.08360
C1503       C  0.80873032  0.34572373  0.50664618     0.62020
H1504       H  0.79578675  0.40602648  0.50786239     0.12710
H1505       H  0.70346349  0.34501890  0.99941825     0.12730
C1506       C  0.68895890  0.40449094  0.99830863     0.62250
F1507       F  0.83192821  0.36619414  0.00876633    -0.22910
F1508       F  0.81327750  0.32876721  0.98077296    -0.20240
F1509       F  0.81014756  0.32688243  0.53156416    -0.19920
F1510       F  0.68768915  0.42286881  0.97302071    -0.19970
F1511       F  0.68181628  0.42105432  0.52390208    -0.20290
F1512       F  0.66697801  0.38286611  0.49501415    -0.22970
C1513       C  0.72408741  0.14564384  0.50781690    -0.05810
C1514       C  0.74942062  0.15900998  0.49483802     0.00120
C1515       C  0.77229461  0.14063019  0.98171414    -0.08450
C1516       C  0.77027839  0.10905339  0.98466042    -0.05830
C1517       C  0.74515597  0.09539389  0.49828476     0.00110
C1518       C  0.72071843  0.11414311  0.50852546    -0.08360
C1519       C  0.69099541  0.10161009  0.51983452     0.62020
H1520       H  0.70646060  0.16037530  0.51675690     0.12710
H1521       H  0.78818203  0.09472809  0.97566609     0.12730
C1522       C  0.79865870  0.15431540  0.96478178     0.62250
F1523       F  0.67135779  0.12409216  0.52991317    -0.22910
F1524       F  0.69617037  0.08217117  0.54359342    -0.20240
F1525       F  0.67679630  0.08647964  0.49669384    -0.19920
F1526       F  0.81357349  0.17434724  0.98316678    -0.19970
F1527       F  0.78807086  0.16946344  0.93949552    -0.20290
F1528       F  0.81931538  0.13252849  0.95525514    -0.22970
C1529       C  0.75543787  0.01940561  0.86075156    -0.05810
C1530       C  0.74870722  0.99157017  0.84699888     0.00120
C1531       C  0.74196446  0.46635750  0.86586317    -0.08450
C1532       C  0.74127124  0.47054409  0.89741072    -0.05830
C1533       C  0.74795451  0.99830128  0.91059543     0.00110
C1534       C  0.75545434  0.02312040  0.89225709    -0.08360
C1535       C  0.76298750  0.05347422  0.90603635     0.62020
H1536       H  0.76097684  0.03850393  0.84662950     0.12710
H1537       H  0.73595855  0.45192884  0.91231205     0.12730
C1538       C  0.73577857  0.43505646  0.85345581     0.62250
F1539       F  0.76828136  0.07517664  0.88418719    -0.22910
F1540       F  0.78866784  0.05062025  0.92360706    -0.20240
F1541       F  0.73917906  0.06349649  0.92388821    -0.19920
F1542       F  0.76091227  0.42431697  0.83796769    -0.19970
F1543       F  0.71110678  0.43613337  0.83438400    -0.20290
F1544       F  0.72950818  0.41452197  0.87616421    -0.22970
C1545       C  0.73416463  0.01810704  0.64656915    -0.05810
C1546       C  0.74781642  0.49257555  0.65997573     0.00120
C1547       C  0.76165262  0.47029029  0.64118170    -0.08450
C1548       C  0.76099275  0.47450419  0.60959411    -0.05830
C1549       C  0.74675132  0.49976489  0.59639956     0.00110
C1550       C  0.73335518  0.02206991  0.61511241    -0.08360
C1551       C  0.71868155  0.05016525  0.60191810     0.62020
H1552       H  0.72368010  0.03497064  0.66103947     0.12710
H1553       H  0.77122379  0.45777801  0.59477819     0.12730
C1554       C  0.77757830  0.44253875  0.65409998     0.62250
F1555       F  0.71024542  0.07074952  0.62400551    -0.22910
F1556       F  0.69303935  0.04215296  0.58630772    -0.20240
F1557       F  0.73879761  0.06413706  0.58264182    -0.19920
F1558       F  0.75670362  0.42403568  0.66779497    -0.19970
F1559       F  0.79895077  0.45112660  0.67502908    -0.20290
F1560       F  0.79227310  0.42585104  0.63191582    -0.22970
C1561       C  0.99129140  0.27736830  0.85646289    -0.05810
C1562       C  0.50825562  0.25443749  0.84258055     0.00120
C1563       C  0.52367167  0.23279514  0.86048888    -0.08450
C1564       C  0.52073220  0.23452887  0.89210441    -0.05830
C1565       C  0.50343898  0.25742252  0.90639821     0.00110
C1566       C  0.98880890  0.27986452  0.88799530    -0.08360
C1567       C  0.96949446  0.30657340  0.89854145     0.62020
H1568       H  0.97968220  0.29380803  0.84223153     0.12710
H1569       H  0.53226624  0.21788906  0.90605373     0.12730
C1570       C  0.54236074  0.20752233  0.84626849     0.62250
F1571       F  0.94059589  0.30376936  0.88709980    -0.22910
F1572       F  0.96713152  0.30965165  0.92924579    -0.20240
F1573       F  0.98164954  0.33291798  0.88731634    -0.19920
F1574       F  0.56651975  0.21952410  0.83073202    -0.19970
F1575       F  0.52466028  0.19139507  0.82649622    -0.20290
F1576       F  0.55375658  0.18762853  0.86770595    -0.22970
C1577       C  0.99199211  0.27338813  0.60834170    -0.05810
C1578       C  0.00012456  0.24635477  0.59335566     0.00120
C1579       C  0.50725382  0.22024421  0.61108957    -0.08450
C1580       C  0.50801832  0.22308303  0.64280228    -0.05830
C1581       C  0.50044185  0.25024182  0.65720474     0.00110
C1582       C  0.99153508  0.27561208  0.63997655    -0.08360
C1583       C  0.98169491  0.30489670  0.65509817     0.62020
H1584       H  0.98564847  0.29301112  0.59507191     0.12710
H1585       H  0.51414704  0.20390440  0.65684788     0.12730
C1586       C  0.51373279  0.18940553  0.59730746     0.62250
F1587       F  0.97467157  0.32725266  0.63425984    -0.22910
F1588       F  0.00463473  0.31521378  0.67335790    -0.20240
F1589       F  0.95627116  0.29994670  0.67251168    -0.19920
F1590       F  0.53833402  0.19079939  0.57817662    -0.19970
F1591       F  0.48870939  0.17992101  0.58148710    -0.20290
F1592       F  0.52022073  0.16776423  0.61906358    -0.22970
C1593       C  0.64152388  0.49742844  0.72474541    -0.05810
C1594       C  0.65551961  0.49825413  0.75295489     0.00120
C1595       C  0.63795794  0.00204455  0.77931499    -0.08450
C1596       C  0.60628337  0.00319192  0.77668139    -0.05830
C1597       C  0.59168523  0.50166368  0.74841834     0.00110
C1598       C  0.60989139  0.49969032  0.72168590    -0.08360
C1599       C  0.59678069  0.50027573  0.68990751     0.62020
H1600       H  0.65586578  0.49517696  0.70497604     0.12710
H1601       H  0.59272551  0.00541354  0.79695730     0.12730
C1602       C  0.65284230  0.00482198  0.81000086     0.62250
F1603       F  0.61906746  0.99928863  0.66788595    -0.22910
F1604       F  0.58022393  0.02668507  0.68558209    -0.20240
F1605       F  0.57858156  0.47558389  0.68557991    -0.19920
F1606       F  0.67147327  0.02960015  0.81016117    -0.19970
F1607       F  0.66991238  0.47912531  0.81590945    -0.20290
F1608       F  0.63182944  0.50838211  0.83299700    -0.22970
C1609       C  0.89242887  0.47392867  0.76462837    -0.05810
C1610       C  0.90415410  0.99691770  0.74606939     0.00120
C1611       C  0.88393245  0.01317768  0.72673191    -0.08450
C1612       C  0.85294003  0.00732446  0.72863442    -0.05830
C1613       C  0.84115951  0.98595867  0.74849173     0.00110
C1614       C  0.86117377  0.46779713  0.76584866    -0.08360
C1615       C  0.84962514  0.44253349  0.78574171     0.62020
H1616       H  0.90807140  0.46069183  0.77822842     0.12710
H1617       H  0.83709406  0.02079156  0.71547393     0.12730
C1618       C  0.89271989  0.04061788  0.70842570     0.62250
F1619       F  0.87279363  0.42822719  0.80143550    -0.22910
F1620       F  0.83572662  0.42116692  0.76801227    -0.20240
F1621       F  0.82904372  0.45394505  0.80652169    -0.19920
F1622       F  0.91923255  0.03606487  0.69256478    -0.19970
F1623       F  0.89532946  0.06439444  0.72813818    -0.20290
F1624       F  0.87082756  0.04850740  0.68740193    -0.22970
C1625       C  0.97213940  0.39469005  0.74865328    -0.05810
C1626       C  0.49951505  0.40990691  0.74820132     0.00120
C1627       C  0.52707197  0.39355470  0.74865854    -0.08450
C1628       C  0.52635035  0.36185344  0.74876914    -0.05830
C1629       C  0.49893130  0.34600734  0.74900453     0.00050
C1630       C  0.97107687  0.36292911  0.74932417    -0.08360
C1631       C  0.94018566  0.34829394  0.75062363     0.62020
H1632       H  0.95148021  0.40814844  0.74866814     0.12710
H1633       H  0.54750266  0.34926601  0.74885224     0.12730
C1634       C  0.55703194  0.40978695  0.74922828     0.62250
F1635       F  0.91680690  0.36945591  0.75106793    -0.22910
F1636       F  0.93778229  0.33112169  0.77663582    -0.20240
F1637       F  0.93614530  0.33034926  0.72547791    -0.19920
F1638       F  0.55842312  0.42783639  0.77464455    -0.19970
F1639       F  0.55961787  0.42765092  0.72375108    -0.20290
F1640       F  0.58141669  0.38983411  0.74985143    -0.22970
C1641       C  0.53069019  0.10820641  0.75187945    -0.05810
C1642       C  0.00210052  0.09534581  0.74901709     0.00120
C1643       C  0.97636186  0.11417057  0.74695309    -0.08450
C1644       C  0.97965573  0.14544898  0.74801986    -0.05830
C1645       C  0.00812296  0.15895319  0.75048101     0.00110
C1646       C  0.53439050  0.13988184  0.75232701    -0.08360
C1647       C  0.56610364  0.15232819  0.75462256     0.62020
H1648       H  0.55012661  0.09311461  0.75340512     0.12710
H1649       H  0.95958626  0.15957927  0.74619169     0.12730
C1650       C  0.94563734  0.10095121  0.74219075     0.62250
F1651       F  0.58779205  0.12958008  0.75705931    -0.22910
F1652       F  0.56831967  0.17040099  0.77993537    -0.20240
F1653       F  0.57266543  0.16893933  0.72900562    -0.19920
F1654       F  0.93937959  0.08081654  0.76524079    -0.19970
F1655       F  0.94601493  0.08620148  0.71472095    -0.20290
F1656       F  0.92285664  0.12274304  0.74160419    -0.22970
O1657       O  0.99769532  0.95720874  0.27309078    -0.72970
O1658       O  0.99812839  0.54771140  0.27347280    -0.73950
O1659       O  0.95142808  0.50235839  0.27220877    -0.62570
O1660       O  0.54312908  0.00186719  0.27330638    -0.70980
O1661       O  0.54327047  0.00245611  0.22349597    -0.70530
O1662       O  0.95265768  0.50219227  0.22223710    -0.61790
O1663       O  0.49845874  0.54818597  0.22330903    -0.74290
O1664       O  0.49875764  0.95727833  0.22289738    -0.73070
Cu1665     Cu  0.99743958  0.50237696  0.27478944     1.04560
Cu1666     Cu  0.49818609  0.00264646  0.22128348     1.04330
C1667       C  0.49860677  0.94306111  0.24802345     0.93230
C1668       C  0.99950567  0.56214250  0.24853588     0.92370
C1669       C  0.93756096  0.50148159  0.24683018     0.84510
C1670       C  0.55778947  0.00208376  0.24830695     0.90780
O1671       O  0.98276012  0.70683751  0.25190777    -0.72970
O1672       O  0.97707021  0.79652611  0.25022839    -0.73950
O1673       O  0.97761454  0.75071509  0.20584236    -0.62570
O1674       O  0.98197139  0.75256907  0.29609828    -0.70980
O1675       O  0.53205330  0.75359168  0.29401748    -0.70530
O1676       O  0.52769008  0.75250394  0.20331455    -0.61790
O1677       O  0.52677543  0.79878374  0.24822305    -0.74290
O1678       O  0.53253791  0.70770170  0.24913853    -0.73070
Cu1679     Cu  0.97820150  0.75156545  0.25110793     1.04560
Cu1680     Cu  0.53157591  0.75327310  0.24857646     1.04330
C1681       C  0.50815752  0.69273625  0.25064611     0.93230
C1682       C  0.50091017  0.81219900  0.24914521     0.92370
C1683       C  0.50196857  0.75131103  0.19037744     0.84510
C1684       C  0.50756133  0.75317761  0.30931384     0.90780
O1685       O  0.74737383  0.96587303  0.29872709    -0.72970
O1686       O  0.74672965  0.96622152  0.20768981    -0.73950
O1687       O  0.79260690  0.96215517  0.25259911    -0.62570
O1688       O  0.70148517  0.96958775  0.25363671    -0.70980
O1689       O  0.70433330  0.51960702  0.25394943    -0.70530
O1690       O  0.79432919  0.51213064  0.25266425    -0.61790
O1691       O  0.74911347  0.51608733  0.20828656    -0.74290
O1692       O  0.74980420  0.51558378  0.29855002    -0.73070
Cu1693     Cu  0.74689744  0.96415195  0.25323052     1.04560
Cu1694     Cu  0.74952589  0.51750332  0.25343329     1.04330
C1695       C  0.74861085  0.99073995  0.31318877     0.93230
C1696       C  0.74806606  0.99134623  0.19356154     0.92370
C1697       C  0.80781070  0.98641496  0.25190201     0.84510
C1698       C  0.68870294  0.99567693  0.25384960     0.90780
O1699       O  0.72098690  0.54713236  0.00123733    -0.72970
O1700       O  0.72240760  0.95694573  0.00464304    -0.73950
O1701       O  0.72160515  0.00317329  0.04868950    -0.62570
O1702       O  0.72222152  0.50029879  0.45777594    -0.70980
O1703       O  0.77239141  0.50129077  0.45811401    -0.70530
O1704       O  0.77173909  0.00157171  0.04872087    -0.61790
O1705       O  0.77223348  0.95610769  0.00364095    -0.74290
O1706       O  0.77094261  0.54739098  0.50245153    -0.73070
Cu1707     Cu  0.72010112  0.00196543  0.00314741     1.04560
Cu1708     Cu  0.77360509  0.50170327  0.50331737     1.04330
C1709       C  0.74561790  0.56175549  0.50098286     0.93230
C1710       C  0.74721228  0.94196425  0.00414224     0.92370
C1711       C  0.74663538  0.00198542  0.06302578     0.84510
C1712       C  0.74748169  0.50032935  0.44373886     0.90780
O1713       O  0.50174237  0.72325604  0.04372932    -0.72970
O1714       O  0.50066031  0.72980667  0.45282006    -0.73950
O1715       O  0.54681539  0.72567622  0.49757663    -0.62570
O1716       O  0.95604341  0.72673402  0.99927342    -0.70980
O1717       O  0.95617592  0.77678507  0.00048438    -0.70530
O1718       O  0.54705522  0.77559137  0.50161697    -0.61790
O1719       O  0.50328215  0.77946348  0.45605327    -0.74290
O1720       O  0.00083663  0.77302600  0.04629758    -0.73070
Cu1721     Cu  0.50136083  0.72460869  0.49819826     1.04560
Cu1722     Cu  0.00177178  0.77792137  0.00126182     1.04330
C1723       C  0.00101821  0.74733590  0.05954401     0.93230
C1724       C  0.50184429  0.75571082  0.43998769     0.92370
C1725       C  0.56122073  0.75036015  0.49943885     0.84510
C1726       C  0.94178484  0.75199243  0.00003286     0.90780
O1727       O  0.74956268  0.70530479  0.02172737    -0.72970
O1728       O  0.75084312  0.79580869  0.02624643    -0.73950
O1729       O  0.70511196  0.75175378  0.02175490    -0.62570
O1730       O  0.79544874  0.74917105  0.02650538    -0.70980
O1731       O  0.79784870  0.75188257  0.47661575    -0.70530
O1732       O  0.70734330  0.75356936  0.47181111    -0.61790
O1733       O  0.75280179  0.79802250  0.47612005    -0.74290
O1734       O  0.75273880  0.70757292  0.47173611    -0.73070
Cu1735     Cu  0.75016265  0.75043306  0.02580273     1.04560
Cu1736     Cu  0.75280163  0.75287289  0.47232482     1.04330
C1737       C  0.75097491  0.69218645  0.99605651     0.93230
C1738       C  0.75200297  0.81108324  0.00178603     0.92370
C1739       C  0.69182474  0.75282998  0.99616220     0.84510
C1740       C  0.81102120  0.75012451  0.00224614     0.90780
C1741       C  0.89385593  0.73587744  0.02354002    -0.05810
C1742       C  0.90835738  0.75226606  0.00071693     0.00120
C1743       C  0.89087963  0.76752995  0.47862041    -0.08450
C1744       C  0.85930775  0.76613815  0.48023673    -0.05830
C1745       C  0.84454730  0.75024440  0.00328533     0.00110
C1746       C  0.86207295  0.73480551  0.02554439    -0.08360
C1747       C  0.84769575  0.71699010  0.05105584     0.62020
H1748       H  0.90776720  0.72426955  0.04012851     0.12710
H1749       H  0.84577745  0.77788223  0.46345379     0.12730
C1750       C  0.90548746  0.78460319  0.45298308     0.62250
F1751       F  0.86901907  0.70096266  0.06769517    -0.22910
F1752       F  0.82751967  0.69650743  0.03950630    -0.20240
F1753       F  0.83269241  0.73649735  0.07052999    -0.19920
F1754       F  0.92596745  0.76579977  0.43828238    -0.19970
F1755       F  0.92004117  0.80941068  0.46450186    -0.20290
F1756       F  0.88457893  0.79479811  0.43193894    -0.22970
C1757       C  0.60879652  0.76674195  0.47579294    -0.05810
C1758       C  0.59454331  0.75001029  0.99849842     0.00120
C1759       C  0.61217870  0.73424791  0.02011587    -0.08450
C1760       C  0.64379184  0.73571339  0.01819088    -0.05830
C1761       C  0.65828158  0.75221391  0.99534560     0.00110
C1762       C  0.64052317  0.76796451  0.47354225    -0.08360
C1763       C  0.65462442  0.78645702  0.44839105     0.62020
H1764       H  0.59469997  0.77863436  0.45955731     0.12710
H1765       H  0.65754999  0.72364922  0.03457609     0.12730
C1766       C  0.59764934  0.71673295  0.04562861     0.62250
F1767       F  0.63307971  0.80249615  0.43204301    -0.22910
F1768       F  0.66988716  0.76754179  0.42853608    -0.20240
F1769       F  0.67449394  0.80697568  0.46043497    -0.19920
F1770       F  0.58211977  0.69260785  0.03391808    -0.19970
F1771       F  0.57787560  0.73547616  0.06133855    -0.20290
F1772       F  0.61881514  0.70547937  0.06587778    -0.22970
C1773       C  0.77544549  0.89290887  0.00598046    -0.05810
C1774       C  0.74724528  0.90812490  0.00399061     0.00120
C1775       C  0.72048543  0.89061225  0.50135650    -0.08450
C1776       C  0.72330265  0.85892422  0.50119086    -0.05830
C1777       C  0.75138819  0.84425097  0.00305001     0.00110
C1778       C  0.77795173  0.86121767  0.00532472    -0.08360
C1779       C  0.80873622  0.84569586  0.00665250     0.62020
H1780       H  0.79578953  0.90599941  0.00786758     0.12710
H1781       H  0.70345704  0.84505161  0.49940988     0.12730
C1782       C  0.68895612  0.90452598  0.49830357     0.62250
F1783       F  0.83192301  0.86622093  0.50876020    -0.22910
F1784       F  0.81327072  0.82879473  0.48076709    -0.20240
F1785       F  0.81015413  0.82685452  0.03157043    -0.19920
F1786       F  0.68768742  0.92290568  0.47301692    -0.19970
F1787       F  0.68181695  0.92102011  0.02390654    -0.20290
F1788       F  0.66698242  0.88282905  0.99502067    -0.22970
C1789       C  0.72403484  0.64561350  0.00777546    -0.05810
C1790       C  0.74937601  0.65898095  0.99481299     0.00120
C1791       C  0.77232862  0.64065856  0.48172175    -0.08450
C1792       C  0.77030975  0.60908135  0.48466433    -0.05830
C1793       C  0.74511980  0.59536424  0.99827027     0.00110
C1794       C  0.72067151  0.61411150  0.00849024    -0.08360
C1795       C  0.69094565  0.60157463  0.01978850     0.62020
H1796       H  0.70640082  0.66034429  0.01670246     0.12710
H1797       H  0.78820525  0.59475445  0.47565640     0.12730
C1798       C  0.79868297  0.65434266  0.46477289     0.62250
F1799       F  0.67129195  0.62405689  0.02983595    -0.22910
F1800       F  0.69611273  0.58215555  0.04356648    -0.20240
F1801       F  0.67676772  0.58642123  0.99664965    -0.19920
F1802       F  0.81361103  0.67437312  0.48314857    -0.19970
F1803       F  0.78808013  0.66949180  0.43949347    -0.20290
F1804       F  0.81933212  0.63255463  0.45523268    -0.22970
C1805       C  0.75544930  0.51942017  0.36074709    -0.05810
C1806       C  0.74871652  0.49158271  0.34699936     0.00120
C1807       C  0.74197633  0.96637288  0.36586855    -0.08450
C1808       C  0.74128703  0.97056442  0.39741567    -0.05830
C1809       C  0.74797122  0.49832406  0.41059538     0.00110
C1810       C  0.75546921  0.52314003  0.39225211    -0.08360
C1811       C  0.76300411  0.55349580  0.40602580     0.62020
H1812       H  0.76098680  0.53851630  0.34662145     0.12710
H1813       H  0.73597573  0.95195154  0.41232050     0.12730
C1814       C  0.73578835  0.93507013  0.35346667     0.62250
F1815       F  0.76829664  0.57519458  0.38417266    -0.22910
F1816       F  0.78868581  0.55064385  0.42359483    -0.20240
F1817       F  0.73919739  0.56352139  0.42387814    -0.19920
F1818       F  0.76091963  0.92432811  0.33797636    -0.19970
F1819       F  0.71111383  0.93614467  0.33439831    -0.20290
F1820       F  0.72952096  0.91453898  0.37617900    -0.22970
C1821       C  0.73416040  0.51809916  0.14656410    -0.05810
C1822       C  0.74781244  0.99256928  0.15997458     0.00120
C1823       C  0.76164758  0.97028077  0.14118354    -0.08450
C1824       C  0.76098509  0.97448883  0.10959546    -0.05830
C1825       C  0.74674225  0.99974675  0.09639750     0.00110
C1826       C  0.73334803  0.52205592  0.11510625    -0.08360
C1827       C  0.71867170  0.55014803  0.10190581     0.62020
H1828       H  0.72367727  0.53496571  0.16103198     0.12710
H1829       H  0.77121508  0.95776002  0.09478175     0.12730
C1830       C  0.77757513  0.94253176  0.15410528     0.62250
F1831       F  0.71023859  0.57073764  0.12398929    -0.22910
F1832       F  0.69302758  0.54213173  0.08630078    -0.20240
F1833       F  0.73878307  0.56411598  0.08262158    -0.19920
F1834       F  0.75670194  0.92402954  0.16780375    -0.19970
F1835       F  0.79894805  0.95112362  0.17503222    -0.20290
F1836       F  0.79226996  0.92584152  0.13192301    -0.22970
C1837       C  0.99129994  0.77736873  0.35646328    -0.05810
C1838       C  0.50826176  0.75443654  0.34258005     0.00120
C1839       C  0.52367843  0.73279390  0.36048749    -0.08450
C1840       C  0.52074273  0.73452902  0.39210333    -0.05830
C1841       C  0.50345312  0.75742466  0.40639826     0.00110
C1842       C  0.98882221  0.77986719  0.38799587    -0.08360
C1843       C  0.96951166  0.80657847  0.39854276     0.62020
H1844       H  0.97968980  0.79380829  0.34223247     0.12710
H1845       H  0.53227689  0.71788873  0.40605198     0.12730
C1846       C  0.54236419  0.70751940  0.34626588     0.62250
F1847       F  0.94060998  0.80377383  0.38710912    -0.22910
F1848       F  0.96715752  0.80966184  0.42924716    -0.20240
F1849       F  0.98166482  0.83292084  0.38731018    -0.19920
F1850       F  0.56652250  0.71951904  0.33072660    -0.19970
F1851       F  0.52466049  0.69139296  0.32649585    -0.20290
F1852       F  0.55376077  0.68762534  0.36770271    -0.22970
C1853       C  0.99198332  0.77338740  0.10834205    -0.05810
C1854       C  0.00011363  0.74635371  0.09335541     0.00120
C1855       C  0.50724516  0.72024357  0.11108901    -0.08450
C1856       C  0.50801272  0.72308276  0.14280163    -0.05830
C1857       C  0.50043767  0.75024169  0.15720451     0.00110
C1858       C  0.99153013  0.77561187  0.13997690    -0.08360
C1859       C  0.98169277  0.80489705  0.15509915     0.62020
H1860       H  0.98563842  0.79301034  0.09507279     0.12710
H1861       H  0.51414273  0.70390429  0.15684689     0.12730
C1862       C  0.51372356  0.68940481  0.09730681     0.62250
F1863       F  0.97466857  0.82725319  0.13426130    -0.22910
F1864       F  0.00463483  0.81521317  0.17335664    -0.20240
F1865       F  0.95627042  0.79994834  0.17251506    -0.19920
F1866       F  0.53832334  0.69079880  0.07817419    -0.19970
F1867       F  0.48869917  0.67991972  0.08148842    -0.20290
F1868       F  0.52021355  0.66776385  0.11906268    -0.22970
C1869       C  0.64152480  0.99742923  0.22474632    -0.05810
C1870       C  0.65552027  0.99825500  0.25295594     0.00120
C1871       C  0.63795835  0.50204426  0.27931592    -0.08450
C1872       C  0.60628382  0.50319124  0.27668209    -0.05830
C1873       C  0.59168593  0.00166335  0.24841890     0.00110
C1874       C  0.60989229  0.99969031  0.22168658    -0.08360
C1875       C  0.59678180  0.00027526  0.18990809     0.62020
H1876       H  0.65586692  0.99517821  0.20497706     0.12710
H1877       H  0.59272580  0.50541234  0.29695796     0.12730
C1878       C  0.65284254  0.50482101  0.31000191     0.62250
F1879       F  0.61906867  0.49928785  0.16788666    -0.22910
F1880       F  0.58022491  0.52668433  0.18558226    -0.20240
F1881       F  0.57858282  0.97558329  0.18558063    -0.19920
F1882       F  0.67147398  0.52959883  0.31016266    -0.19970
F1883       F  0.66991213  0.97912405  0.31591021    -0.20290
F1884       F  0.63182959  0.00838133  0.33299796    -0.22970
C1885       C  0.89242919  0.97392849  0.26462826    -0.05810
C1886       C  0.90415480  0.49691746  0.24606923     0.00120
C1887       C  0.88393356  0.51317720  0.22673117    -0.08450
C1888       C  0.85294117  0.50732380  0.22863277    -0.05830
C1889       C  0.84116011  0.48595867  0.24849040     0.00110
C1890       C  0.86117400  0.96779716  0.26584815    -0.08360
C1891       C  0.84962506  0.94253388  0.28574153     0.62020
H1892       H  0.90807144  0.96069183  0.27822878     0.12710
H1893       H  0.83709556  0.52079053  0.21547152     0.12730
C1894       C  0.89272131  0.54061762  0.20842552     0.62250
F1895       F  0.87279334  0.92822773  0.30143579    -0.22910
F1896       F  0.83572665  0.92116704  0.26801235    -0.20240
F1897       F  0.82904351  0.95394585  0.30652116    -0.19920
F1898       F  0.91923381  0.53606446  0.19256437    -0.19970
F1899       F  0.89533134  0.56439356  0.22813863    -0.20290
F1900       F  0.87082901  0.54850813  0.18740207    -0.22970
C1901       C  0.97214022  0.89468957  0.24865381    -0.05810
C1902       C  0.49951579  0.90990646  0.24820162     0.00120
C1903       C  0.52707269  0.89355421  0.24865868    -0.08450
C1904       C  0.52635100  0.86185295  0.24876924    -0.05830
C1905       C  0.49893193  0.84600689  0.24900475     0.00050
C1906       C  0.97107765  0.86292864  0.24932466    -0.08360
C1907       C  0.94018642  0.84829354  0.25062431     0.62020
H1908       H  0.95148106  0.90814800  0.24866882     0.12710
H1909       H  0.54750330  0.84926548  0.24885224     0.12730
C1910       C  0.55703269  0.90978640  0.24922832     0.62250
F1911       F  0.91680769  0.86945556  0.25106849    -0.22910
F1912       F  0.93778307  0.83112150  0.27663664    -0.20240
F1913       F  0.93614594  0.83034868  0.22547877    -0.19920
F1914       F  0.55842399  0.92783582  0.27464459    -0.19970
F1915       F  0.55961854  0.92765038  0.22375111    -0.20290
F1916       F  0.58141740  0.88983352  0.24985136    -0.22970
C1917       C  0.53069104  0.60820602  0.25187915    -0.05810
C1918       C  0.00210148  0.59534535  0.24901697     0.00120
C1919       C  0.97636285  0.61417012  0.24695271    -0.08450
C1920       C  0.97965673  0.64544852  0.24801910    -0.05830
C1921       C  0.00812394  0.65895272  0.25048030     0.00110
C1922       C  0.53439134  0.63988145  0.25232642    -0.08360
C1923       C  0.56610444  0.65232786  0.25462188     0.62020
H1924       H  0.55012747  0.59311424  0.25340488     0.12710
H1925       H  0.95958729  0.65957882  0.24619063     0.12730
C1926       C  0.94563836  0.60095074  0.24219047     0.62250
F1927       F  0.58779285  0.62957981  0.25705911    -0.22910
F1928       F  0.56832034  0.67040108  0.27993440    -0.20240
F1929       F  0.57266632  0.66893859  0.22900470    -0.19920
F1930       F  0.93938060  0.58081634  0.26524074    -0.19970
F1931       F  0.94601604  0.58620075  0.21472081    -0.20290
F1932       F  0.92285766  0.62274257  0.24160364    -0.22970
O1933       O  0.99769472  0.95720917  0.77309044    -0.72970
O1934       O  0.99812774  0.54771179  0.77347276    -0.73950
O1935       O  0.95142748  0.50235883  0.77220864    -0.62570
O1936       O  0.54312850  0.00186764  0.77330613    -0.70980
O1937       O  0.54326963  0.00245664  0.72349572    -0.70530
O1938       O  0.95265682  0.50219285  0.72223696    -0.61790
O1939       O  0.49845793  0.54818650  0.72330895    -0.74290
O1940       O  0.49875685  0.95727881  0.72289713    -0.73070
Cu1941     Cu  0.99743897  0.50237738  0.77478923     1.04560
Cu1942     Cu  0.49818525  0.00264696  0.72128332     1.04330
C1943       C  0.49860610  0.94306156  0.74802319     0.93230
C1944       C  0.99950491  0.56214298  0.74853589     0.92370
C1945       C  0.93756022  0.50148211  0.74683013     0.84510
C1946       C  0.55778876  0.00208428  0.74830663     0.90780
O1947       O  0.98275938  0.70683803  0.75190710    -0.72970
O1948       O  0.97706967  0.79652660  0.75022676    -0.73950
O1949       O  0.97761630  0.75071523  0.70584117    -0.62570
O1950       O  0.98196821  0.75257004  0.79609711    -0.70980
O1951       O  0.53205018  0.75359259  0.79401949    -0.70530
O1952       O  0.52769197  0.75250413  0.70331629    -0.61790
O1953       O  0.52677500  0.79878421  0.74822449    -0.74290
O1954       O  0.53253733  0.70770217  0.74914076    -0.73070
Cu1955     Cu  0.97820084  0.75156598  0.75110669     1.04560
Cu1956     Cu  0.53157537  0.75327360  0.74857841     1.04330
C1957       C  0.50815685  0.69273671  0.75064690     0.93230
C1958       C  0.50090968  0.81219947  0.74914509     0.92370
C1959       C  0.50197120  0.75131115  0.69037770     0.84510
C1960       C  0.50755723  0.75317874  0.80931429     0.90780
O1961       O  0.74737080  0.96586713  0.79872369    -0.72970
O1962       O  0.74673149  0.96622275  0.70768773    -0.73950
O1963       O  0.79260661  0.96215416  0.75259805    -0.62570
O1964       O  0.70148440  0.96958628  0.75363249    -0.70980
O1965       O  0.70433284  0.51960544  0.75395093    -0.70530
O1966       O  0.79432850  0.51212967  0.75266886    -0.61790
O1967       O  0.74911529  0.51608854  0.70828989    -0.74290
O1968       O  0.74980105  0.51557789  0.79855297    -0.73070
Cu1969     Cu  0.74689693  0.96415018  0.75322772     1.04560
Cu1970     Cu  0.74952530  0.51750156  0.75343649     1.04330
C1971       C  0.74860610  0.99073225  0.81318842     0.93230
C1972       C  0.74806876  0.99134882  0.69356231     0.92370
C1973       C  0.80781018  0.98641423  0.75190378     0.84510
C1974       C  0.68870230  0.99567556  0.75384826     0.90780
O1975       O  0.72101258  0.54716730  0.50123859    -0.72970
O1976       O  0.72241092  0.95697950  0.50464039    -0.73950
O1977       O  0.72161747  0.00320541  0.54868969    -0.62570
O1978       O  0.72220547  0.50026380  0.95777670    -0.70980
O1979       O  0.77237508  0.50126457  0.95811322    -0.70530
O1980       O  0.77175107  0.00159233  0.54872351    -0.61790
O1981       O  0.77223693  0.95613333  0.50363938    -0.74290
O1982       O  0.77091649  0.54736682  0.00244605    -0.73070
Cu1983     Cu  0.72011540  0.00200015  0.50314672     1.04560
Cu1984     Cu  0.77359065  0.50167933  0.00331557     1.04330
C1985       C  0.74558870  0.56172601  0.00097665     0.93230
C1986       C  0.74721334  0.94199413  0.50413911     0.92370
C1987       C  0.74664669  0.00200987  0.56302750     0.84510
C1988       C  0.74746515  0.50030049  0.94373894     0.90780
O1989       O  0.50175436  0.72325757  0.54372962    -0.72970
O1990       O  0.50064654  0.72980449  0.95281965    -0.73950
O1991       O  0.54680120  0.72568138  0.99757552    -0.62570
O1992       O  0.95605622  0.72674393  0.49927400    -0.70980
O1993       O  0.95619751  0.77679479  0.50048569    -0.70530
O1994       O  0.54703469  0.77559662  0.00161615    -0.61790
O1995       O  0.50326112  0.77946185  0.95605283    -0.74290
O1996       O  0.00085688  0.77302770  0.54629841    -0.73070
Cu1997     Cu  0.50134785  0.72460667  0.99819774     1.04560
Cu1998     Cu  0.00179297  0.77792345  0.50126260     1.04330
C1999       C  0.00103338  0.74733742  0.55954443     0.93230
C2000       C  0.50182749  0.75570885  0.93998733     0.92370
C2001       C  0.56120333  0.75036706  0.99943786     0.84510
C2002       C  0.94180203  0.75200487  0.50003426     0.90780
O2003       O  0.74959692  0.70533807  0.52174498    -0.72970
O2004       O  0.75084277  0.79584269  0.52624727    -0.73950
O2005       O  0.70512774  0.75176985  0.52176317    -0.62570
O2006       O  0.79546575  0.74921962  0.52651551    -0.70980
O2007       O  0.79783125  0.75184203  0.97660623    -0.70530
O2008       O  0.70732492  0.75356148  0.97180301    -0.61790
O2009       O  0.75280084  0.79799649  0.97611955    -0.74290
O2010       O  0.75270352  0.70754746  0.97171874    -0.73070
Cu2011     Cu  0.75017927  0.75046673  0.52581210     1.04560
Cu2012     Cu  0.75278372  0.75284785  0.97231585     1.04330
C2013       C  0.75101519  0.69221565  0.49607647     0.93230
C2014       C  0.75199858  0.81111341  0.50178427     0.92370
C2015       C  0.69184187  0.75283691  0.49616943     0.84510
C2016       C  0.81103822  0.75016962  0.50225601     0.90780
C2017       C  0.89387021  0.73589742  0.52354136    -0.05810
C2018       C  0.90837454  0.75228552  0.50071974     0.00120
C2019       C  0.89086007  0.76750216  0.97861399    -0.08450
C2020       C  0.85928867  0.76609851  0.98022607    -0.05830
C2021       C  0.84456402  0.75028493  0.50329477     0.00110
C2022       C  0.86208695  0.73483431  0.52554777    -0.08360
C2023       C  0.84770595  0.71701365  0.55105328     0.62020
H2024       H  0.90777939  0.72428212  0.54012650     0.12710
H2025       H  0.84575674  0.77783594  0.96343988     0.12730
C2026       C  0.90546509  0.78458044  0.95297831     0.62250
F2027       F  0.86902563  0.70097348  0.56768518    -0.22910
F2028       F  0.82752287  0.69654154  0.53949697    -0.20240
F2029       F  0.83270940  0.73651786  0.57053553    -0.19920
F2030       F  0.92595108  0.76578313  0.93827820    -0.19970
F2031       F  0.92001136  0.80939145  0.96449917    -0.20290
F2032       F  0.88455545  0.79477097  0.93193322    -0.22970
C2033       C  0.60877941  0.76675238  0.97579373    -0.05810
C2034       C  0.59456080  0.75000078  0.49849846     0.00120
C2035       C  0.61219656  0.73424151  0.52011791    -0.08450
C2036       C  0.64380993  0.73571073  0.51819500    -0.05830
C2037       C  0.65829902  0.75221218  0.49534984     0.00110
C2038       C  0.64050629  0.76797102  0.97354089    -0.08360
C2039       C  0.65460831  0.78646347  0.94839015     0.62020
H2040       H  0.59468313  0.77864723  0.95955962     0.12710
H2041       H  0.65756870  0.72365030  0.53458241     0.12730
C2042       C  0.59766702  0.71672731  0.54563106     0.62250
F2043       F  0.63306454  0.80250706  0.93204510    -0.22910
F2044       F  0.66986684  0.76754779  0.92853248    -0.20240
F2045       F  0.67448182  0.80697811  0.96043425    -0.19920
F2046       F  0.58213672  0.69260236  0.53392114    -0.19970
F2047       F  0.57789365  0.73547121  0.56134064    -0.20290
F2048       F  0.61883276  0.70547371  0.56588027    -0.22970
C2049       C  0.77544171  0.89293746  0.50597471    -0.05810
C2050       C  0.74724252  0.90815507  0.50398536     0.00120
C2051       C  0.72048927  0.89058015  0.00136300    -0.08450
C2052       C  0.72330828  0.85889262  0.00119860    -0.05830
C2053       C  0.75138213  0.84428125  0.50304345     0.00110
C2054       C  0.77794629  0.86124667  0.50531852    -0.08360
C2055       C  0.80873023  0.84572370  0.50664645     0.62020
H2056       H  0.79578667  0.90602646  0.50786249     0.12710
H2057       H  0.70346340  0.84501892  0.99941822     0.12730
C2058       C  0.68895878  0.90449096  0.99830882     0.62250
F2059       F  0.83192812  0.86619413  0.00876640    -0.22910
F2060       F  0.81327748  0.82876711  0.98077311    -0.20240
F2061       F  0.81014741  0.82688253  0.53156452    -0.19920
F2062       F  0.68768893  0.92286884  0.97302091    -0.19970
F2063       F  0.68181625  0.92105436  0.52390233    -0.20290
F2064       F  0.66697790  0.88286610  0.49501451    -0.22970
C2065       C  0.72408738  0.64564380  0.50781704    -0.05810
C2066       C  0.74942064  0.65900999  0.49483831     0.00120
C2067       C  0.77229455  0.64063027  0.98171439    -0.08450
C2068       C  0.77027837  0.60905347  0.98466064    -0.05830
C2069       C  0.74515604  0.59539389  0.49828493     0.00110
C2070       C  0.72071844  0.61414307  0.50852556    -0.08360
C2071       C  0.69099539  0.60161001  0.51983450     0.62020
H2072       H  0.70646050  0.66037523  0.51675695     0.12710
H2073       H  0.78818209  0.59472820  0.97566640     0.12730
C2074       C  0.79865880  0.65431556  0.96478233     0.62250
F2075       F  0.67135771  0.62409205  0.52991311    -0.22910
F2076       F  0.69617028  0.58217106  0.54359339    -0.20240
F2077       F  0.67679637  0.58647959  0.49669375    -0.19920
F2078       F  0.81357338  0.67434735  0.98316757    -0.19970
F2079       F  0.78807120  0.66946368  0.93949602    -0.20290
F2080       F  0.81931558  0.63252870  0.95525582    -0.22970
C2081       C  0.75543790  0.51940564  0.86075155    -0.05810
C2082       C  0.74870724  0.49157020  0.84699887     0.00120
C2083       C  0.74196441  0.96635747  0.86586318    -0.08450
C2084       C  0.74127118  0.97054405  0.89741073    -0.05830
C2085       C  0.74795457  0.49830131  0.91059543     0.00110
C2086       C  0.75545439  0.52312044  0.89225707    -0.08360
C2087       C  0.76298755  0.55347426  0.90603633     0.62020
H2088       H  0.76097685  0.53850396  0.84662948     0.12710
H2089       H  0.73595847  0.95192881  0.91231205     0.12730
C2090       C  0.73577851  0.93505644  0.85345580     0.62250
F2091       F  0.76828139  0.57517668  0.88418716    -0.22910
F2092       F  0.78866791  0.55062029  0.92360703    -0.20240
F2093       F  0.73917913  0.56349652  0.92388821    -0.19920
F2094       F  0.76091221  0.92431694  0.83796770    -0.19970
F2095       F  0.71110673  0.93613336  0.83438398    -0.20290
F2096       F  0.72950810  0.91452195  0.87616420    -0.22970
C2097       C  0.73416466  0.51810699  0.64656912    -0.05810
C2098       C  0.74781639  0.99257558  0.65997574     0.00120
C2099       C  0.76165256  0.97029032  0.64118169    -0.08450
C2100       C  0.76099267  0.97450423  0.60959411    -0.05830
C2101       C  0.74675125  0.99976495  0.59639957     0.00110
C2102       C  0.73335522  0.52206985  0.61511239    -0.08360
C2103       C  0.71868156  0.55016517  0.60191806     0.62020
H2104       H  0.72368010  0.53497060  0.66103943     0.12710
H2105       H  0.77122369  0.95777805  0.59477817     0.12730
C2106       C  0.77757824  0.94253877  0.65409996     0.62250
F2107       F  0.71024543  0.57074945  0.62400545    -0.22910
F2108       F  0.69303936  0.54215284  0.58630769    -0.20240
F2109       F  0.73879761  0.56413698  0.58264176    -0.19920
F2110       F  0.75670356  0.92403570  0.66779495    -0.19970
F2111       F  0.79895072  0.95112660  0.67502904    -0.20290
F2112       F  0.79227302  0.92585106  0.63191577    -0.22970
C2113       C  0.99129053  0.77736828  0.85646278    -0.05810
C2114       C  0.50825524  0.75443768  0.84258054     0.00120
C2115       C  0.52367165  0.73279567  0.86048898    -0.08450
C2116       C  0.52073216  0.73452952  0.89210450    -0.05830
C2117       C  0.50343857  0.75742295  0.90639818     0.00110
C2118       C  0.98880808  0.77986468  0.88799518    -0.08360
C2119       C  0.96949326  0.80657332  0.89854122     0.62020
H2120       H  0.97968102  0.79380772  0.84223134     0.12710
H2121       H  0.53226646  0.71788996  0.90605390     0.12730
C2122       C  0.54236103  0.70752301  0.84626875     0.62250
F2123       F  0.94059450  0.80376835  0.88710031    -0.22910
F2124       F  0.96713106  0.80965215  0.92924555    -0.20240
F2125       F  0.98164743  0.83291799  0.88731528    -0.19920
F2126       F  0.56651993  0.71952498  0.83073224    -0.19970
F2127       F  0.52466079  0.69139543  0.82649655    -0.20290
F2128       F  0.55375708  0.68762945  0.86770633    -0.22970
C2129       C  0.99199267  0.77338805  0.60834174    -0.05810
C2130       C  0.00012514  0.74635474  0.59335562     0.00120
C2131       C  0.50725404  0.72024418  0.61108953    -0.08450
C2132       C  0.50801871  0.72308301  0.64280224    -0.05830
C2133       C  0.50044228  0.75024182  0.65720472     0.00110
C2134       C  0.99153574  0.77561194  0.63997658    -0.08360
C2135       C  0.98169548  0.80489650  0.65509827     0.62020
H2136       H  0.98564890  0.79301103  0.59507200     0.12710
H2137       H  0.51414745  0.70390439  0.65684782     0.12730
C2138       C  0.51373284  0.68940546  0.59730742     0.62250
F2139       F  0.97467207  0.82725249  0.63426000    -0.22910
F2140       F  0.00463528  0.81521361  0.67335802    -0.20240
F2141       F  0.95627176  0.79994638  0.67251177    -0.19920
F2142       F  0.53833397  0.69079922  0.57817645    -0.19970
F2143       F  0.48870933  0.67992102  0.58148720    -0.20290
F2144       F  0.52022082  0.66776416  0.61906353    -0.22970
C2145       C  0.64152388  0.99742855  0.72474543    -0.05810
C2146       C  0.65551962  0.99825423  0.75295491     0.00120
C2147       C  0.63795793  0.50204446  0.77931496    -0.08450
C2148       C  0.60628337  0.50319181  0.77668136    -0.05830
C2149       C  0.59168524  0.00166379  0.74841836     0.00110
C2150       C  0.60989139  0.99969044  0.72168592    -0.08360
C2151       C  0.59678070  0.00027585  0.68990754     0.62020
H2152       H  0.65586579  0.99517707  0.70497606     0.12710
H2153       H  0.59272550  0.50541344  0.79695727     0.12730
C2154       C  0.65284229  0.50482190  0.81000083     0.62250
F2155       F  0.61906745  0.49928850  0.66788593    -0.22910
F2156       F  0.58022393  0.52668495  0.68558206    -0.20240
F2157       F  0.57858158  0.97558401  0.68557993    -0.19920
F2158       F  0.67147324  0.52960009  0.81016113    -0.19970
F2159       F  0.66991238  0.97912537  0.81590947    -0.20290
F2160       F  0.63182945  0.00838219  0.83299703    -0.22970
C2161       C  0.89242887  0.97392855  0.76462836    -0.05810
C2162       C  0.90415409  0.49691785  0.74606944     0.00120
C2163       C  0.88393243  0.51317784  0.72673198    -0.08450
C2164       C  0.85294002  0.50732459  0.72863445    -0.05830
C2165       C  0.84115951  0.48595877  0.74849173     0.00110
C2166       C  0.86117377  0.96779704  0.76584868    -0.08360
C2167       C  0.84962512  0.94253344  0.78574177     0.62020
H2168       H  0.90807139  0.96069172  0.77822842     0.12710
H2169       H  0.83709405  0.52079167  0.71547395     0.12730
C2170       C  0.89271990  0.54061804  0.70842578     0.62250
F2171       F  0.87279360  0.92822715  0.80143558    -0.22910
F2172       F  0.83572657  0.92116686  0.76801238    -0.20240
F2173       F  0.82904371  0.95394506  0.80652174    -0.19920
F2174       F  0.91923244  0.53606491  0.69256468    -0.19970
F2175       F  0.89532972  0.56439453  0.72813829    -0.20290
F2176       F  0.87082748  0.54850774  0.68740215    -0.22970
C2177       C  0.97213960  0.89469000  0.74865316    -0.05810
C2178       C  0.49951518  0.90990691  0.74820133     0.00120
C2179       C  0.52707210  0.89355470  0.74865854    -0.08450
C2180       C  0.52635047  0.86185344  0.74876911    -0.05830
C2181       C  0.49893142  0.84600735  0.74900448     0.00050
C2182       C  0.97107709  0.86292906  0.74932401    -0.08360
C2183       C  0.94018590  0.84829387  0.75062343     0.62020
H2184       H  0.95148040  0.90814838  0.74866801     0.12710
H2185       H  0.54750279  0.84926601  0.74885219     0.12730
C2186       C  0.55703207  0.90978695  0.74922832     0.62250
F2187       F  0.91680713  0.86945583  0.75106778    -0.22910
F2188       F  0.93778253  0.83112157  0.77663559    -0.20240
F2189       F  0.93614554  0.83034925  0.72547767    -0.19920
F2190       F  0.55842323  0.92783638  0.77464460    -0.19970
F2191       F  0.55961802  0.92765094  0.72375113    -0.20290
F2192       F  0.58141682  0.88983411  0.74985147    -0.22970
C2193       C  0.53069032  0.60820642  0.75187965    -0.05810
C2194       C  0.00210072  0.59534581  0.74901714     0.00120
C2195       C  0.97636209  0.61417059  0.74695303    -0.08450
C2196       C  0.97965599  0.64544899  0.74801983    -0.05830
C2197       C  0.00812321  0.65895318  0.75048115     0.00110
C2198       C  0.53439063  0.63988185  0.75232723    -0.08360
C2199       C  0.56610375  0.65232820  0.75462300     0.62020
H2200       H  0.55012672  0.59311462  0.75340545     0.12710
H2201       H  0.95958653  0.65957929  0.74619158     0.12730
C2202       C  0.94563757  0.60095126  0.74219061     0.62250
F2203       F  0.58779214  0.62958009  0.75705992    -0.22910
F2204       F  0.56831960  0.67040102  0.77993582    -0.20240
F2205       F  0.57266573  0.66893933  0.72900611    -0.19920
F2206       F  0.93937973  0.58081666  0.76524069    -0.19970
F2207       F  0.94601522  0.58620146  0.71472084    -0.20290
F2208       F  0.92285690  0.62274312  0.74160393    -0.22970
loop_ 
_geom_bond_atom_site_label_1 
_geom_bond_atom_site_label_2 
_geom_bond_distance 
_geom_bond_site_symmetry_2 
_ccdc_geom_bond_type 
O1         Cu561   2.002       .  S
O1         C1115   1.275       .  A
O2           Cu9   2.010       .  S
O2           C12   1.276       .  A
O3           Cu9   2.039       .  S
O3           C13   1.282       .  A
O4        Cu1665   2.022   1_455  S
O4           C14   1.281       .  A
O5          Cu10   1.997   1_455  S
O5           C14   1.274       .  A
O6        Cu1666   2.015       .  S
O6           C13   1.276       .  A
O7         Cu562   2.020       .  S
O7         C1116   1.279       .  A
O8          Cu10   2.011       .  S
O8           C11   1.277       .  A
Cu9         O553   2.002   1_545  S
Cu9        O1660   2.022       .  S
Cu9       Cu1666   2.368       .  S
Cu10       O1662   2.015       .  S
Cu10        O559   2.020       .  S
Cu10      Cu1665   2.368       .  S
C11        O1105   1.275       .  A
C11         C246   1.469       .  S
C12        O1111   1.279       .  A
C12         C262   1.477       .  S
C13         C230   1.496   1_545  S
C14         C217   1.500       .  S
O15         Cu23   1.989       .  S
O15        C1129   1.278       .  A
O16         Cu23   1.992       .  S
O16        C1130   1.273       .  A
O17         Cu23   2.004       .  S
O17        C1131   1.276       .  A
O18         Cu23   1.999       .  S
O18        C1132   1.277       .  A
O19         Cu24   2.012       .  S
O19          C28   1.277       .  A
O20         Cu24   2.012       .  S
O20          C27   1.277       .  A
O21         Cu24   2.024       .  S
O21          C26   1.282       .  A
O22         Cu24   2.019       .  S
O22          C25   1.277       .  A
Cu23      Cu1128   2.367       .  S
Cu24      Cu1127   2.367   1_455  S
C25        O1119   1.278   1_455  A
C25        C1369   1.497       .  S
C26        O1120   1.273   1_455  A
C26         C249   1.499   1_455  S
C27        O1121   1.276   1_455  A
C27         C201   1.471       .  S
C28        O1122   1.277   1_455  A
C28         C182   1.474       .  S
O29         Cu37   2.016       .  S
O29          C39   1.277       .  A
O30         Cu37   2.018       .  S
O30          C40   1.278       .  A
O31         Cu37   2.023       .  S
O31          C41   1.277       .  A
O32         Cu37   2.020       .  S
O32          C42   1.279       .  A
O33         Cu38   2.000       .  S
O33         C594   1.275   1_545  A
O34         Cu38   1.993       .  S
O34         C593   1.278   1_545  A
O35         Cu38   2.000       .  S
O35         C592   1.278   1_545  A
O36         Cu38   1.999       .  S
O36         C591   1.278   1_545  A
Cu37       Cu590   2.368       .  S
Cu38       Cu589   2.368   1_545  S
C39         O588   1.278       .  A
C39         C702   1.497       .  S
C40         O587   1.278       .  A
C40         C166   1.488       .  S
C41         O586   1.278       .  A
C41         C785   1.483       .  S
C42         O585   1.275       .  A
C42         C214   1.472       .  S
O43        Cu603   2.004       .  S
O43         C329   1.275       .  A
O44         Cu51   1.996       .  S
O44          C54   1.274       .  A
O45         Cu51   2.018       .  S
O45          C55   1.278       .  A
O46        Cu879   2.012       .  S
O46          C56   1.277       .  A
O47         Cu52   2.002       .  S
O47          C56   1.275       .  A
O48        Cu880   2.011       .  S
O48          C55   1.277       .  A
O49        Cu880   2.021       .  S
O49          C54   1.281       .  A
O50         Cu52   2.026       .  S
O50          C53   1.282       .  A
Cu51        O595   2.004       .  S
Cu51        O874   2.012   1_554  S
Cu51       Cu880   2.367       .  S
Cu52        O876   2.011       .  S
Cu52        O877   2.021   1_545  S
Cu52       Cu879   2.367       .  S
C53         O319   1.275       .  A
C53         C413   1.495       .  S
C54         C118   1.499       .  S
C55         C169   1.480       .  S
C56         C153   1.470   1_545  S
O57        Cu341   2.016   1_554  S
O57        C1171   1.277       .  A
O58         Cu65   2.022       .  S
O58          C68   1.281       .  A
O59         Cu65   2.013       .  S
O59          C69   1.277       .  A
O60       Cu1445   2.006       .  S
O60          C70   1.276   1_556  A
O61         Cu66   2.019       .  S
O61          C70   1.279       .  A
O62       Cu1446   2.004       .  S
O62          C69   1.276       .  A
O63       Cu1446   2.003       .  S
O63          C68   1.274       .  A
O64         Cu66   2.005       .  S
O64          C67   1.279       .  A
Cu65        O333   2.016       .  S
Cu65       O1440   2.006   1_455  S
Cu65      Cu1446   2.366       .  S
Cu66       O1442   2.004       .  S
Cu66       O1443   2.003   1_554  S
Cu66      Cu1445   2.366   1_554  S
C67        O1161   1.277       .  A
C67         C198   1.498       .  S
C68         C185   1.490       .  S
C69         C378   1.476       .  S
C70          C86   1.479       .  S
O71         Cu79   2.008       .  S
O71          C81   1.278   1_554  A
O72         Cu79   2.011       .  S
O72          C82   1.277       .  A
O73         Cu79   2.002       .  S
O73          C83   1.278   1_554  A
O74         Cu79   2.004       .  S
O74          C84   1.275       .  A
O75         Cu80   2.003       .  S
O75         C360   1.279       .  A
O76         Cu80   2.011       .  S
O76         C359   1.277       .  A
O77         Cu80   2.007       .  S
O77         C358   1.276       .  A
O78         Cu80   2.007       .  S
O78         C357   1.276       .  A
Cu79       Cu356   2.372   1_554  S
Cu80       Cu355   2.372       .  S
C81         O354   1.276       .  A
C81         C134   1.475       .  S
C82         O353   1.276   1_554  A
C82         C121   1.470       .  S
C83         O352   1.277       .  A
C83         C105   1.485       .  S
C84         O351   1.279   1_554  A
C84          C89   1.484       .  S
C85          C86   1.403       .  A
C85          C90   1.410       .  A
C85          H92   1.083       .  S
C86         C363   1.413   1_554  A
C87          C88   1.401       .  A
C87         C362   1.413       .  A
C87          C94   1.512       .  S
C88         C365   1.403       .  A
C88          H93   1.083       .  S
C89          C90   1.423       .  A
C89         C364   1.403   1_554  A
C90          C91   1.520       .  S
C91          F95   1.385       .  S
C91          F96   1.383       .  S
C91          F97   1.383       .  S
C94          F98   1.383       .  S
C94          F99   1.382       .  S
C94         F100   1.385       .  S
C101        C106   1.409       .  A
C101        C378   1.402       .  A
C101        H108   1.083       .  S
C102        C345   1.476       .  S
C102        C103   1.413   1_556  A
C102        C377   1.402       .  A
C103        C104   1.404       .  A
C103        C110   1.516       .  S
C104        C105   1.406   1_554  A
C104        H109   1.083       .  S
C105        C382   1.422       .  A
C106        C381   1.422       .  A
C106        C107   1.520       .  S
C107        F111   1.385       .  S
C107        F112   1.383       .  S
C107        F113   1.383       .  S
C110        F114   1.382       .  S
C110        F115   1.383       .  S
C110        F116   1.385       .  S
C117        C118   1.412       .  A
C117        C122   1.407       .  A
C117        H124   1.082       .  S
C118        C395   1.432       .  A
C119        C120   1.407       .  A
C119        C394   1.432       .  A
C119        C126   1.522       .  S
C120        C397   1.395       .  A
C120        H125   1.083       .  S
C121        C122   1.409       .  A
C121        C396   1.395       .  A
C122        C123   1.517       .  S
C123        F129   1.383       .  S
C123        F403   1.385       .  S
C123        F404   1.383   1_554  S
C126        F130   1.384       .  S
C126        F407   1.383       .  S
C126        F408   1.385       .  S
F127        C399   1.385       .  S
F128        C399   1.383       .  S
F131        C402   1.383   1_554  S
F132        C402   1.385       .  S
C133        C134   1.398   1_554  A
C133        C138   1.406       .  A
C133        H140   1.083       .  S
C134        C411   1.413       .  A
C135        C136   1.409       .  A
C135        C410   1.413       .  A
C135        C142   1.519       .  S
C136        C413   1.410       .  A
C136        H141   1.083       .  S
C137        C329   1.495   1_556  S
C137        C138   1.426   1_556  A
C137        C412   1.410       .  A
C138        C139   1.519       .  S
C139        F143   1.385       .  S
C139        F144   1.375       .  S
C139        F145   1.383   1_554  S
C142        F146   1.382       .  S
C142        F147   1.383       .  S
C142        F148   1.384       .  S
C149        C150   1.413   1_545  A
C149        C154   1.404       .  A
C149        H156   1.082       .  S
C150        C591   1.497       .  S
C150        C703   1.428       .  A
C151        C152   1.409       .  A
C151        C702   1.428       .  A
C151        C158   1.521       .  S
C152        C705   1.398       .  A
C152        H157   1.083       .  S
C153        C154   1.409   1_565  A
C153        C704   1.398       .  A
C154        C155   1.520       .  S
C155        F159   1.385       .  S
C155        F160   1.383       .  S
C155        F161   1.383       .  S
C158        F162   1.383       .  S
C158        F163   1.382       .  S
C158        F164   1.385       .  S
C165        C170   1.404       .  A
C165        C718   1.405   1_545  A
C165        H172   1.083       .  S
C166        C167   1.422       .  A
C166        C717   1.405       .  A
C167        C168   1.411       .  A
C167        C174   1.519       .  S
C168        C169   1.403       .  A
C168        H173   1.083       .  S
C169        C722   1.413       .  A
C170        C721   1.413   1_545  A
C170        C171   1.512       .  S
C171        F175   1.385       .  S
C171        F176   1.382       .  S
C171        F177   1.384       .  S
C174        F178   1.383       .  S
C174        F179   1.384       .  S
C174        F180   1.385       .  S
C181        C186   1.404       .  A
C181       C1286   1.396       .  A
C181        H188   1.086       .  S
C182        C183   1.411       .  A
C182       C1285   1.396   1_455  A
C183        C184   1.407       .  A
C183        C190   1.518       .  S
C184        C185   1.410       .  A
C184        H189   1.083       .  S
C185       C1290   1.432   1_455  A
C186       C1289   1.432       .  A
C186        C187   1.522       .  S
C187        F191   1.384       .  S
C187        F192   1.370       .  S
C187        F193   1.384       .  S
C190        F194   1.383       .  S
C190        F195   1.383       .  S
C190        F196   1.384       .  S
C197        C198   1.411       .  A
C197        C202   1.404       .  A
C197        H204   1.082       .  S
C198       C1303   1.428       .  A
C199        C200   1.410       .  A
C199       C1302   1.428       .  A
C199        C206   1.520       .  S
C200        C201   1.398       .  A
C200        H205   1.083       .  S
C201       C1306   1.409   1_455  A
C202       C1305   1.409       .  A
C202        C203   1.518       .  S
C203        F207   1.384       .  S
C203        F208   1.383       .  S
C203        F209   1.382       .  S
C206        F210   1.379       .  S
C206        F211   1.383   1_455  S
C206        F212   1.385       .  S
C213        C214   1.396       .  A
C213        C218   1.409       .  A
C213        H220   1.083       .  S
C214        C767   1.409       .  A
C215        C216   1.407       .  A
C215        C766   1.409   1_545  A
C215        C222   1.517       .  S
C216        C769   1.412       .  A
C216        H221   1.082       .  S
C217        C218   1.432       .  A
C217        C768   1.412       .  A
C218        C219   1.523       .  S
C219        F225   1.383       .  S
C219        F775   1.385       .  S
C219        F776   1.384       .  S
C222        F226   1.383       .  S
C222        F779   1.381   1_545  S
C222        F780   1.384       .  S
F223        C771   1.385   1_565  S
F224        C771   1.384       .  S
F227        C774   1.381       .  S
F228        C774   1.384       .  S
C229        C234   1.415       .  A
C229        C782   1.412       .  A
C229        H236   1.083       .  S
C230        C231   1.426   1_565  A
C230        C781   1.412       .  A
C231        C232   1.402       .  A
C231        C238   1.515       .  S
C232        C233   1.397   1_545  A
C232        H237   1.084       .  S
C233        C593   1.483       .  S
C233        C786   1.414       .  A
C234        C785   1.414       .  A
C234        C235   1.517       .  S
C235        F239   1.384       .  S
C235        F240   1.383       .  S
C235        F241   1.383       .  S
C238        F242   1.378       .  S
C238        F243   1.375       .  S
C238        F244   1.385       .  S
C245        C250   1.409       .  A
C245       C1350   1.396       .  A
C245        H252   1.083       .  S
C246        C247   1.408   1_655  A
C246       C1349   1.396       .  A
C247        C248   1.405       .  A
C247        C254   1.519       .  S
C248        C249   1.411   1_455  A
C248        H253   1.082       .  S
C249       C1354   1.432       .  A
C250       C1353   1.432       .  A
C250        C251   1.523       .  S
C251        F255   1.385       .  S
C251        F256   1.384       .  S
C251        F257   1.383       .  S
C254        F258   1.383       .  S
C254        F259   1.382       .  S
C254        F260   1.384       .  S
C261        C266   1.416       .  A
C261       C1366   1.402       .  A
C261        H268   1.083       .  S
C262        C263   1.404       .  A
C262       C1365   1.402       .  A
C263        C264   1.397       .  A
C263        C270   1.504       .  S
C264        C265   1.408       .  A
C264        H269   1.081       .  S
C265       C1129   1.497       .  S
C265       C1370   1.428       .  A
C266       C1369   1.428       .  A
C266        C267   1.520       .  S
C267        F271   1.385       .  S
C267        F272   1.383       .  S
C267        F273   1.383       .  S
C270        F274   1.384       .  S
C270        F275   1.381       .  S
C270        F276   1.385       .  S
O277       Cu837   2.002       .  S
O277       C1391   1.275       .  A
O278       Cu285   2.010       .  S
O278        C288   1.276       .  A
O279       Cu285   2.039       .  S
O279        C289   1.282       .  A
O280      Cu1941   2.022   1_455  S
O280        C290   1.281       .  A
O281       Cu286   1.997   1_455  S
O281        C290   1.274       .  A
O282      Cu1942   2.015       .  S
O282        C289   1.276       .  A
O283       Cu838   2.020       .  S
O283       C1392   1.279       .  A
O284       Cu286   2.011       .  S
O284        C287   1.277       .  A
Cu285       O829   2.002   1_545  S
Cu285      O1936   2.022       .  S
Cu285     Cu1942   2.368       .  S
Cu286      O1938   2.015       .  S
Cu286       O835   2.020       .  S
Cu286     Cu1941   2.368       .  S
C287       O1381   1.275       .  A
C287        C522   1.469       .  S
C288       O1387   1.279       .  A
C288        C538   1.477       .  S
C289        C506   1.496   1_545  S
C290        C493   1.500       .  S
O291       Cu299   1.989       .  S
O291       C1405   1.278       .  A
O292       Cu299   1.992       .  S
O292       C1406   1.273       .  A
O293       Cu299   2.004       .  S
O293       C1407   1.276       .  A
O294       Cu299   1.999       .  S
O294       C1408   1.277       .  A
O295       Cu300   2.012       .  S
O295        C304   1.277       .  A
O296       Cu300   2.012       .  S
O296        C303   1.277       .  A
O297       Cu300   2.024       .  S
O297        C302   1.282       .  A
O298       Cu300   2.019       .  S
O298        C301   1.277       .  A
Cu299     Cu1404   2.367       .  S
Cu300     Cu1403   2.367   1_455  S
C301       O1395   1.278   1_455  A
C301       C1645   1.497       .  S
C302       O1396   1.273   1_455  A
C302        C525   1.499   1_455  S
C303       O1397   1.276   1_455  A
C303        C477   1.471       .  S
C304       O1398   1.277   1_455  A
C304        C458   1.474       .  S
O305       Cu313   2.015       .  S
O305        C315   1.277       .  A
O306       Cu313   2.018       .  S
O306        C316   1.278       .  A
O307       Cu313   2.023       .  S
O307        C317   1.277       .  A
O308       Cu313   2.020       .  S
O308        C318   1.279       .  A
O309       Cu314   2.000       .  S
O309        C870   1.275   1_545  A
O310       Cu314   1.993       .  S
O310        C869   1.278   1_545  A
O311       Cu314   2.000       .  S
O311        C868   1.278   1_545  A
O312       Cu314   1.999       .  S
O312        C867   1.278   1_545  A
Cu313      Cu866   2.368       .  S
Cu314      Cu865   2.368   1_545  S
C315        O864   1.278       .  A
C315        C978   1.497       .  S
C316        O863   1.278       .  A
C316        C442   1.488       .  S
C317        O862   1.278       .  A
C317       C1061   1.483       .  S
C318        O861   1.275       .  A
C318        C490   1.472       .  S
O319       Cu879   2.004       .  S
O320       Cu327   1.996       .  S
O320        C330   1.274       .  A
O321       Cu327   2.018       .  S
O321        C331   1.278       .  A
O322       Cu603   2.012   1_556  S
O322        C332   1.277       .  A
O323       Cu328   2.002   1_556  S
O323        C332   1.275       .  A
O324       Cu604   2.011       .  S
O324        C331   1.277       .  A
O325       Cu604   2.021       .  S
O325        C330   1.281       .  A
O326       Cu328   2.026       .  S
O326        C329   1.282       .  A
Cu327       O871   2.004       .  S
Cu327       O598   2.012       .  S
Cu327      Cu604   2.367       .  S
Cu328       O600   2.011       .  S
Cu328       O601   2.021   1_545  S
Cu328      Cu603   2.367       .  S
C330        C394   1.499       .  S
C331        C445   1.480       .  S
C332        C429   1.470   1_545  S
O333       C1447   1.277       .  A
O334       Cu341   2.022       .  S
O334        C344   1.281       .  A
O335       Cu341   2.013       .  S
O335        C345   1.277       .  A
O336      Cu1169   2.006       .  S
O336        C346   1.276       .  A
O337       Cu342   2.019       .  S
O337        C346   1.279       .  A
O338      Cu1170   2.004       .  S
O338        C345   1.276   1_554  A
O339      Cu1170   2.003   1_556  S
O339        C344   1.274       .  A
O340       Cu342   2.005       .  S
O340        C343   1.279       .  A
Cu341      O1164   2.006   1_455  S
Cu341     Cu1170   2.366   1_556  S
Cu342      O1166   2.004       .  S
Cu342      O1167   2.003       .  S
Cu342     Cu1169   2.366       .  S
C343       O1437   1.277       .  A
C343        C474   1.498       .  S
C344        C461   1.490       .  S
C346        C362   1.479       .  S
O347       Cu355   2.008       .  S
O347        C357   1.278       .  A
O348       Cu355   2.011       .  S
O348        C358   1.277       .  A
O349       Cu355   2.002       .  S
O349        C359   1.278       .  A
O350       Cu355   2.004       .  S
O350        C360   1.275       .  A
O351       Cu356   2.003       .  S
O352       Cu356   2.011       .  S
O353       Cu356   2.007       .  S
O354       Cu356   2.007       .  S
C357        C410   1.475       .  S
C358        C397   1.470       .  S
C359        C381   1.485       .  S
C360        C365   1.484       .  S
C361        C362   1.403       .  A
C361        C366   1.410       .  A
C361        H368   1.083       .  S
C363        C364   1.401       .  A
C363        C370   1.512       .  S
C364        H369   1.083       .  S
C365        C366   1.423       .  A
C366        C367   1.520       .  S
C367        F371   1.385       .  S
C367        F372   1.383       .  S
C367        F373   1.383       .  S
C370        F374   1.383       .  S
C370        F375   1.382       .  S
C370        F376   1.385       .  S
C377        C382   1.409       .  A
C377        H384   1.083       .  S
C378        C379   1.413       .  A
C379        C380   1.404       .  A
C379        C386   1.516       .  S
C380        C381   1.406       .  A
C380        H385   1.083       .  S
C382        C383   1.520       .  S
C383        F387   1.385       .  S
C383        F388   1.383       .  S
C383        F389   1.383       .  S
C386        F390   1.382       .  S
C386        F391   1.383       .  S
C386        F392   1.385       .  S
C393        C394   1.412       .  A
C393        C398   1.407       .  A
C393        H400   1.082       .  S
C395        C396   1.407       .  A
C395        C402   1.522   1_554  S
C396        H401   1.083   1_554  S
C397        C398   1.409       .  A
C398        C399   1.517       .  S
C399        F405   1.383       .  S
C402        F406   1.384       .  S
C409        C410   1.398       .  A
C409        C414   1.406       .  A
C409        H416   1.083       .  S
C411        C412   1.409       .  A
C411        C418   1.519       .  S
C412        H417   1.083       .  S
C413        C414   1.426       .  A
C414        C415   1.519       .  S
C415        F419   1.385       .  S
C415        F420   1.375       .  S
C415        F421   1.383       .  S
C418        F422   1.382       .  S
C418        F423   1.383       .  S
C418        F424   1.384       .  S
C425        C426   1.413   1_545  A
C425        C430   1.404       .  A
C425        H432   1.082       .  S
C426        C867   1.497       .  S
C426        C979   1.428       .  A
C427        C978   1.428       .  A
C427        C428   1.409       .  A
C427        C434   1.521       .  S
C428        C981   1.398       .  A
C428        H433   1.083       .  S
C429        C980   1.398       .  A
C429        C430   1.409   1_565  A
C430        C431   1.520       .  S
C431        F435   1.385       .  S
C431        F436   1.383       .  S
C431        F437   1.383       .  S
C434        F438   1.383       .  S
C434        F439   1.382       .  S
C434        F440   1.385       .  S
C441        C994   1.405   1_545  A
C441        C446   1.404       .  A
C441        H448   1.083       .  S
C442        C993   1.405       .  A
C442        C443   1.422       .  A
C443        C444   1.411       .  A
C443        C450   1.519       .  S
C444        C445   1.403       .  A
C444        H449   1.083       .  S
C445        C998   1.413       .  A
C446        C997   1.413   1_545  A
C446        C447   1.512       .  S
C447        F451   1.385       .  S
C447        F452   1.382       .  S
C447        F453   1.384       .  S
C450        F454   1.383       .  S
C450        F455   1.384       .  S
C450        F456   1.385       .  S
C457       C1562   1.396       .  A
C457        C462   1.404       .  A
C457        H464   1.086       .  S
C458       C1561   1.396   1_455  A
C458        C459   1.411       .  A
C459        C460   1.407       .  A
C459        C466   1.518       .  S
C460        C461   1.410       .  A
C460        H465   1.083       .  S
C461       C1566   1.432   1_455  A
C462       C1565   1.432       .  A
C462        C463   1.522       .  S
C463        F467   1.384       .  S
C463        F468   1.370       .  S
C463        F469   1.384       .  S
C466        F470   1.383       .  S
C466        F471   1.383       .  S
C466        F472   1.384       .  S
C473        C474   1.411       .  A
C473        C478   1.404       .  A
C473        H480   1.082       .  S
C474       C1579   1.428       .  A
C475       C1578   1.428       .  A
C475        C476   1.410       .  A
C475        C482   1.520       .  S
C476        C477   1.398       .  A
C476        H481   1.083       .  S
C477       C1582   1.409   1_455  A
C478       C1581   1.409       .  A
C478        C479   1.518       .  S
C479        F483   1.384       .  S
C479        F484   1.383       .  S
C479        F485   1.382       .  S
C482        F486   1.379       .  S
C482        F487   1.383   1_455  S
C482        F488   1.385       .  S
C489        C490   1.396       .  A
C489        C494   1.409       .  A
C489        H496   1.083       .  S
C490       C1043   1.409       .  A
C491       C1042   1.409   1_545  A
C491        C492   1.407       .  A
C491        C498   1.517       .  S
C492       C1045   1.412       .  A
C492        H497   1.082       .  S
C493       C1044   1.412       .  A
C493        C494   1.432       .  A
C494        C495   1.523       .  S
C495       F1051   1.385       .  S
C495       F1052   1.384       .  S
C495        F501   1.383       .  S
C498        F502   1.383       .  S
C498       F1055   1.381   1_545  S
C498       F1056   1.384       .  S
F499       C1047   1.385   1_565  S
F500       C1047   1.384       .  S
F503       C1050   1.381       .  S
F504       C1050   1.384       .  S
C505       C1058   1.412       .  A
C505        C510   1.415       .  A
C505        H512   1.083       .  S
C506       C1057   1.412       .  A
C506        C507   1.426   1_565  A
C507        C508   1.402       .  A
C507        C514   1.515       .  S
C508        C509   1.397   1_545  A
C508        H513   1.084       .  S
C509        C869   1.483       .  S
C509       C1062   1.414       .  A
C510       C1061   1.414       .  A
C510        C511   1.517       .  S
C511        F515   1.384       .  S
C511        F516   1.383       .  S
C511        F517   1.383       .  S
C514        F518   1.378       .  S
C514        F519   1.375       .  S
C514        F520   1.385       .  S
C521       C1626   1.396       .  A
C521        C526   1.409       .  A
C521        H528   1.083       .  S
C522       C1625   1.396       .  A
C522        C523   1.408   1_655  A
C523        C524   1.405       .  A
C523        C530   1.519       .  S
C524        C525   1.411   1_455  A
C524        H529   1.082       .  S
C525       C1630   1.432       .  A
C526       C1629   1.432       .  A
C526        C527   1.523       .  S
C527        F531   1.385       .  S
C527        F532   1.384       .  S
C527        F533   1.383       .  S
C530        F534   1.383       .  S
C530        F535   1.382       .  S
C530        F536   1.384       .  S
C537       C1642   1.402       .  A
C537        C542   1.416       .  A
C537        H544   1.083       .  S
C538       C1641   1.402       .  A
C538        C539   1.404       .  A
C539        C540   1.397       .  A
C539        C546   1.504       .  S
C540        C541   1.408       .  A
C540        H545   1.081       .  S
C541       C1405   1.497       .  S
C541       C1646   1.428       .  A
C542       C1645   1.428       .  A
C542        C543   1.520       .  S
C543        F547   1.385       .  S
C543        F548   1.383       .  S
C543        F549   1.383       .  S
C546        F550   1.384       .  S
C546        F551   1.381       .  S
C546        F552   1.385       .  S
O553       C1667   1.275       .  A
O554       Cu561   2.010       .  S
O554        C564   1.276       .  A
O555       Cu561   2.039       .  S
O555        C565   1.282       .  A
O556      Cu1113   2.022   1_455  S
O556        C566   1.281       .  A
O557       Cu562   1.997   1_455  S
O557        C566   1.274       .  A
O558      Cu1114   2.015       .  S
O558        C565   1.276       .  A
O559       C1668   1.279       .  A
O560       Cu562   2.011   1_565  S
O560        C563   1.277       .  A
Cu561      O1108   2.022       .  S
Cu561     Cu1114   2.368       .  S
Cu562      O1110   2.015       .  S
Cu562     Cu1113   2.368       .  S
C563       O1657   1.275       .  A
C563        C798   1.469       .  S
C564       O1663   1.279       .  A
C564        C814   1.477       .  S
C565        C782   1.496       .  S
C566        C769   1.500       .  S
O567       Cu575   1.989       .  S
O567       C1681   1.278       .  A
O568       Cu575   1.992       .  S
O568       C1682   1.273       .  A
O569       Cu575   2.004       .  S
O569       C1683   1.276       .  A
O570       Cu575   1.999       .  S
O570       C1684   1.277       .  A
O571       Cu576   2.012       .  S
O571        C580   1.277       .  A
O572       Cu576   2.012       .  S
O572        C579   1.277       .  A
O573       Cu576   2.024       .  S
O573        C578   1.282       .  A
O574       Cu576   2.019       .  S
O574        C577   1.277       .  A
Cu575     Cu1680   2.367       .  S
Cu576     Cu1679   2.367   1_455  S
C577       O1671   1.278   1_455  A
C577       C1921   1.497       .  S
C578       O1672   1.273   1_455  A
C578        C801   1.499   1_455  S
C579       O1673   1.276   1_455  A
C579        C753   1.471       .  S
C580       O1674   1.277   1_455  A
C580        C734   1.474       .  S
O581       Cu589   2.016       .  S
O581        C591   1.277       .  A
O582       Cu589   2.018       .  S
O582        C592   1.278       .  A
O583       Cu589   2.023       .  S
O583        C593   1.277       .  A
O584       Cu589   2.020       .  S
O584        C594   1.279       .  A
O585       Cu590   2.000       .  S
O586       Cu590   1.993       .  S
O587       Cu590   2.000       .  S
O588       Cu590   1.999       .  S
C592        C718   1.488       .  S
C594        C766   1.472       .  S
O595        C881   1.275       .  A
O596       Cu603   1.996   1_565  S
O596        C606   1.274       .  A
O597       Cu603   2.018       .  S
O597        C607   1.278       .  A
O598        C608   1.277       .  A
O599       Cu604   2.002       .  S
O599        C608   1.275       .  A
O600        C607   1.277       .  A
O601        C606   1.281       .  A
O602       Cu604   2.026       .  S
O602        C605   1.282       .  A
C605        O871   1.275       .  A
C605        C965   1.495       .  S
C606        C670   1.499       .  S
C607        C721   1.480   1_545  S
C608        C705   1.470       .  S
O609       Cu893   2.016   1_554  S
O609       C1723   1.277       .  A
O610       Cu617   2.022       .  S
O610        C620   1.281       .  A
O611       Cu617   2.013       .  S
O611        C621   1.277       .  A
O612      Cu1997   2.006       .  S
O612        C622   1.276   1_556  A
O613       Cu618   2.019       .  S
O613        C622   1.279       .  A
O614      Cu1998   2.004       .  S
O614        C621   1.276       .  A
O615      Cu1998   2.003       .  S
O615        C620   1.274       .  A
O616       Cu618   2.005       .  S
O616        C619   1.279       .  A
Cu617       O885   2.016       .  S
Cu617      O1992   2.006   1_455  S
Cu617     Cu1998   2.366       .  S
Cu618      O1994   2.004       .  S
Cu618      O1995   2.003   1_554  S
Cu618     Cu1997   2.366   1_554  S
C619       O1713   1.277       .  A
C619        C750   1.498       .  S
C620        C737   1.490       .  S
C621        C930   1.476       .  S
C622        C638   1.479       .  S
O623       Cu631   2.008       .  S
O623        C633   1.278   1_554  A
O624       Cu631   2.011       .  S
O624        C634   1.277       .  A
O625       Cu631   2.002       .  S
O625        C635   1.278   1_554  A
O626       Cu631   2.004       .  S
O626        C636   1.275       .  A
O627       Cu632   2.003       .  S
O627        C912   1.279       .  A
O628       Cu632   2.011       .  S
O628        C911   1.277       .  A
O629       Cu632   2.007       .  S
O629        C910   1.276       .  A
O630       Cu632   2.007       .  S
O630        C909   1.276       .  A
Cu631      Cu908   2.372   1_554  S
Cu632      Cu907   2.372       .  S
C633        O906   1.276       .  A
C633        C686   1.475       .  S
C634        O905   1.276   1_554  A
C634        C673   1.470       .  S
C635        O904   1.277       .  A
C635        C657   1.485       .  S
C636        O903   1.279   1_554  A
C636        C641   1.484       .  S
C637        C638   1.403       .  A
C637        C642   1.410       .  A
C637        H644   1.083       .  S
C638        C915   1.413   1_554  A
C639        C914   1.413       .  A
C639        C640   1.401       .  A
C639        C646   1.512       .  S
C640        C917   1.403       .  A
C640        H645   1.083       .  S
C641        C916   1.403   1_554  A
C641        C642   1.423       .  A
C642        C643   1.520       .  S
C643        F647   1.385       .  S
C643        F648   1.383       .  S
C643        F649   1.383       .  S
C646        F650   1.383       .  S
C646        F651   1.382       .  S
C646        F652   1.385       .  S
C653        C930   1.402       .  A
C653        C658   1.409       .  A
C653        H660   1.083       .  S
C654        C897   1.476       .  S
C654        C929   1.402       .  A
C654        C655   1.413   1_556  A
C655        C656   1.404       .  A
C655        C662   1.516       .  S
C656        C657   1.406   1_554  A
C656        H661   1.083       .  S
C657        C934   1.422       .  A
C658        C933   1.422       .  A
C658        C659   1.520       .  S
C659        F663   1.385       .  S
C659        F664   1.383       .  S
C659        F665   1.383       .  S
C662        F666   1.382       .  S
C662        F667   1.383       .  S
C662        F668   1.385       .  S
C669        C670   1.412       .  A
C669        C674   1.407       .  A
C669        H676   1.082       .  S
C670        C947   1.432       .  A
C671        C946   1.432       .  A
C671        C672   1.407       .  A
C671        C678   1.522       .  S
C672        C949   1.395       .  A
C672        H677   1.083       .  S
C673        C948   1.395       .  A
C673        C674   1.409       .  A
C674        C675   1.517       .  S
C675        F955   1.385       .  S
C675        F956   1.383   1_554  S
C675        F681   1.383       .  S
C678        F682   1.384       .  S
C678        F959   1.383       .  S
C678        F960   1.385       .  S
F679        C951   1.385       .  S
F680        C951   1.383       .  S
F683        C954   1.383   1_554  S
F684        C954   1.385       .  S
C685        C686   1.398   1_554  A
C685        C690   1.406       .  A
C685        H692   1.083       .  S
C686        C963   1.413       .  A
C687        C962   1.413       .  A
C687        C688   1.409       .  A
C687        C694   1.519       .  S
C688        C965   1.410       .  A
C688        H693   1.083       .  S
C689        C881   1.495   1_556  S
C689        C964   1.410       .  A
C689        C690   1.426   1_556  A
C690        C691   1.519       .  S
C691        F695   1.385       .  S
C691        F696   1.375       .  S
C691        F697   1.383   1_554  S
C694        F698   1.382       .  S
C694        F699   1.383       .  S
C694        F700   1.384       .  S
C701        C702   1.413       .  A
C701        C706   1.404       .  A
C701        H708   1.082       .  S
C703        C704   1.409       .  A
C703        C710   1.521       .  S
C704        H709   1.083       .  S
C705        C706   1.409       .  A
C706        C707   1.520       .  S
C707        F711   1.385       .  S
C707        F712   1.383       .  S
C707        F713   1.383       .  S
C710        F714   1.383       .  S
C710        F715   1.382       .  S
C710        F716   1.385       .  S
C717        C722   1.404       .  A
C717        H724   1.083       .  S
C718        C719   1.422       .  A
C719        C720   1.411       .  A
C719        C726   1.519       .  S
C720        C721   1.403       .  A
C720        H725   1.083       .  S
C722        C723   1.512       .  S
C723        F727   1.385       .  S
C723        F728   1.382       .  S
C723        F729   1.384       .  S
C726        F730   1.383       .  S
C726        F731   1.384       .  S
C726        F732   1.385       .  S
C733       C1838   1.396       .  A
C733        C738   1.404       .  A
C733        H740   1.086       .  S
C734       C1837   1.396   1_455  A
C734        C735   1.411       .  A
C735        C736   1.407       .  A
C735        C742   1.518       .  S
C736        C737   1.410       .  A
C736        H741   1.083       .  S
C737       C1842   1.432   1_455  A
C738       C1841   1.432       .  A
C738        C739   1.522       .  S
C739        F743   1.384       .  S
C739        F744   1.370       .  S
C739        F745   1.384       .  S
C742        F746   1.383       .  S
C742        F747   1.383       .  S
C742        F748   1.384       .  S
C749        C750   1.411       .  A
C749        C754   1.404       .  A
C749        H756   1.082       .  S
C750       C1855   1.428       .  A
C751       C1854   1.428       .  A
C751        C752   1.410       .  A
C751        C758   1.520       .  S
C752        C753   1.398       .  A
C752        H757   1.083       .  S
C753       C1858   1.409   1_455  A
C754       C1857   1.409       .  A
C754        C755   1.518       .  S
C755        F759   1.384       .  S
C755        F760   1.383       .  S
C755        F761   1.382       .  S
C758        F762   1.379       .  S
C758        F763   1.383   1_455  S
C758        F764   1.385       .  S
C765        C766   1.396       .  A
C765        C770   1.409       .  A
C765        H772   1.083       .  S
C767        C768   1.407       .  A
C767        C774   1.517       .  S
C768        H773   1.082       .  S
C769        C770   1.432   1_545  A
C770        C771   1.523   1_565  S
C771        F777   1.383   1_545  S
C774        F778   1.383       .  S
C781        C786   1.415       .  A
C781        H788   1.083       .  S
C782        C783   1.426       .  A
C783        C784   1.402       .  A
C783        C790   1.515       .  S
C784        C785   1.397       .  A
C784        H789   1.084       .  S
C786        C787   1.517       .  S
C787        F791   1.384       .  S
C787        F792   1.383       .  S
C787        F793   1.383       .  S
C790        F794   1.378       .  S
C790        F795   1.375       .  S
C790        F796   1.385       .  S
C797       C1902   1.396       .  A
C797        C802   1.409       .  A
C797        H804   1.083       .  S
C798       C1901   1.396       .  A
C798        C799   1.408   1_655  A
C799        C800   1.405       .  A
C799        C806   1.519       .  S
C800        C801   1.411   1_455  A
C800        H805   1.082       .  S
C801       C1906   1.432       .  A
C802       C1905   1.432       .  A
C802        C803   1.523       .  S
C803        F807   1.385       .  S
C803        F808   1.384       .  S
C803        F809   1.383       .  S
C806        F810   1.383       .  S
C806        F811   1.382       .  S
C806        F812   1.384       .  S
C813       C1918   1.402       .  A
C813        C818   1.416       .  A
C813        H820   1.083       .  S
C814       C1917   1.402       .  A
C814        C815   1.404       .  A
C815        C816   1.397       .  A
C815        C822   1.504       .  S
C816        C817   1.408       .  A
C816        H821   1.081       .  S
C817       C1681   1.497       .  S
C817       C1922   1.428       .  A
C818       C1921   1.428       .  A
C818        C819   1.520       .  S
C819        F823   1.385       .  S
C819        F824   1.383       .  S
C819        F825   1.383       .  S
C822        F826   1.384       .  S
C822        F827   1.381       .  S
C822        F828   1.385       .  S
O829       C1943   1.275       .  A
O830       Cu837   2.010       .  S
O830        C840   1.276       .  A
O831       Cu837   2.039       .  S
O831        C841   1.282       .  A
O832      Cu1389   2.022   1_455  S
O832        C842   1.281       .  A
O833       Cu838   1.997   1_455  S
O833        C842   1.274       .  A
O834      Cu1390   2.015       .  S
O834        C841   1.276       .  A
O835       C1944   1.279       .  A
O836       Cu838   2.011   1_565  S
O836        C839   1.277       .  A
Cu837      O1384   2.022       .  S
Cu837     Cu1390   2.368       .  S
Cu838      O1386   2.015       .  S
Cu838     Cu1389   2.368       .  S
C839       O1933   1.275       .  A
C839       C1074   1.469       .  S
C840       O1939   1.279       .  A
C840       C1090   1.477       .  S
C841       C1058   1.496       .  S
C842       C1045   1.500       .  S
O843       Cu851   1.989       .  S
O843       C1957   1.278       .  A
O844       Cu851   1.992       .  S
O844       C1958   1.273       .  A
O845       Cu851   2.004       .  S
O845       C1959   1.276       .  A
O846       Cu851   1.999       .  S
O846       C1960   1.277       .  A
O847       Cu852   2.012       .  S
O847        C856   1.277       .  A
O848       Cu852   2.012       .  S
O848        C855   1.277       .  A
O849       Cu852   2.024       .  S
O849        C854   1.282       .  A
O850       Cu852   2.019       .  S
O850        C853   1.277       .  A
Cu851     Cu1956   2.367       .  S
Cu852     Cu1955   2.367   1_455  S
C853       O1947   1.278   1_455  A
C853       C2197   1.497       .  S
C854       O1948   1.273   1_455  A
C854       C1077   1.499   1_455  S
C855       O1949   1.276   1_455  A
C855       C1029   1.471       .  S
C856       O1950   1.277   1_455  A
C856       C1010   1.474       .  S
O857       Cu865   2.015       .  S
O857        C867   1.277       .  A
O858       Cu865   2.018       .  S
O858        C868   1.278       .  A
O859       Cu865   2.023       .  S
O859        C869   1.277       .  A
O860       Cu865   2.020       .  S
O860        C870   1.279       .  A
O861       Cu866   2.000       .  S
O862       Cu866   1.993       .  S
O863       Cu866   2.000       .  S
O864       Cu866   1.999       .  S
C868        C994   1.488       .  S
C870       C1042   1.472       .  S
O872       Cu879   1.996   1_565  S
O872        C882   1.274       .  A
O873       Cu879   2.018       .  S
O873        C883   1.278       .  A
O874        C884   1.277       .  A
O875       Cu880   2.002   1_556  S
O875        C884   1.275       .  A
O876        C883   1.277       .  A
O877        C882   1.281       .  A
O878       Cu880   2.026       .  S
O878        C881   1.282       .  A
C882        C946   1.499       .  S
C883        C997   1.480   1_545  S
C884        C981   1.470       .  S
O885       C1999   1.277       .  A
O886       Cu893   2.022       .  S
O886        C896   1.281       .  A
O887       Cu893   2.013       .  S
O887        C897   1.277       .  A
O888      Cu1721   2.006       .  S
O888        C898   1.276       .  A
O889       Cu894   2.019       .  S
O889        C898   1.279       .  A
O890      Cu1722   2.004       .  S
O890        C897   1.276   1_554  A
O891      Cu1722   2.003   1_556  S
O891        C896   1.274       .  A
O892       Cu894   2.005       .  S
O892        C895   1.279       .  A
Cu893      O1716   2.006   1_455  S
Cu893     Cu1722   2.366   1_556  S
Cu894      O1718   2.004       .  S
Cu894      O1719   2.003       .  S
Cu894     Cu1721   2.366       .  S
C895       O1989   1.277       .  A
C895       C1026   1.498       .  S
C896       C1013   1.490       .  S
C898        C914   1.479       .  S
O899       Cu907   2.008       .  S
O899        C909   1.278       .  A
O900       Cu907   2.011       .  S
O900        C910   1.277       .  A
O901       Cu907   2.002       .  S
O901        C911   1.278       .  A
O902       Cu907   2.004       .  S
O902        C912   1.275       .  A
O903       Cu908   2.003       .  S
O904       Cu908   2.011       .  S
O905       Cu908   2.007       .  S
O906       Cu908   2.007       .  S
C909        C962   1.475       .  S
C910        C949   1.470       .  S
C911        C933   1.485       .  S
C912        C917   1.484       .  S
C913        C914   1.403       .  A
C913        C918   1.410       .  A
C913        H920   1.083       .  S
C915        C916   1.401       .  A
C915        C922   1.512       .  S
C916        H921   1.083       .  S
C917        C918   1.423       .  A
C918        C919   1.520       .  S
C919        F923   1.385       .  S
C919        F924   1.383       .  S
C919        F925   1.383       .  S
C922        F926   1.383       .  S
C922        F927   1.382       .  S
C922        F928   1.385       .  S
C929        C934   1.409       .  A
C929        H936   1.083       .  S
C930        C931   1.413       .  A
C931        C932   1.404       .  A
C931        C938   1.516       .  S
C932        C933   1.406       .  A
C932        H937   1.083       .  S
C934        C935   1.520       .  S
C935        F939   1.385       .  S
C935        F940   1.383       .  S
C935        F941   1.383       .  S
C938        F942   1.382       .  S
C938        F943   1.383       .  S
C938        F944   1.385       .  S
C945        C946   1.412       .  A
C945        C950   1.407       .  A
C945        H952   1.082       .  S
C947        C948   1.407       .  A
C947        C954   1.522   1_554  S
C948        H953   1.083   1_554  S
C949        C950   1.409       .  A
C950        C951   1.517       .  S
C951        F957   1.383       .  S
C954        F958   1.384       .  S
C961        C962   1.398       .  A
C961        C966   1.406       .  A
C961        H968   1.083       .  S
C963        C964   1.409       .  A
C963        C970   1.519       .  S
C964        H969   1.083       .  S
C965        C966   1.426       .  A
C966        C967   1.519       .  S
C967        F971   1.385       .  S
C967        F972   1.375       .  S
C967        F973   1.383       .  S
C970        F974   1.382       .  S
C970        F975   1.383       .  S
C970        F976   1.384       .  S
C977        C978   1.413       .  A
C977        C982   1.404       .  A
C977        H984   1.082       .  S
C979        C980   1.409       .  A
C979        C986   1.521       .  S
C980        H985   1.083       .  S
C981        C982   1.409       .  A
C982        C983   1.520       .  S
C983        F987   1.385       .  S
C983        F988   1.383       .  S
C983        F989   1.383       .  S
C986        F990   1.383       .  S
C986        F991   1.382       .  S
C986        F992   1.385       .  S
C993        C998   1.404       .  A
C993       H1000   1.083       .  S
C994        C995   1.422       .  A
C995        C996   1.411       .  A
C995       C1002   1.519       .  S
C996        C997   1.403       .  A
C996       H1001   1.083       .  S
C998        C999   1.512       .  S
C999       F1003   1.385       .  S
C999       F1004   1.382       .  S
C999       F1005   1.384       .  S
C1002      F1006   1.383       .  S
C1002      F1007   1.384       .  S
C1002      F1008   1.385       .  S
C1009      C2114   1.396       .  A
C1009      C1014   1.404       .  A
C1009      H1016   1.086       .  S
C1010      C2113   1.396   1_455  A
C1010      C1011   1.411       .  A
C1011      C1012   1.407       .  A
C1011      C1018   1.518       .  S
C1012      C1013   1.410       .  A
C1012      H1017   1.083       .  S
C1013      C2118   1.432   1_455  A
C1014      C2117   1.432       .  A
C1014      C1015   1.522       .  S
C1015      F1019   1.384       .  S
C1015      F1020   1.370       .  S
C1015      F1021   1.384       .  S
C1018      F1022   1.383       .  S
C1018      F1023   1.383       .  S
C1018      F1024   1.384       .  S
C1025      C1026   1.411       .  A
C1025      C1030   1.404       .  A
C1025      H1032   1.082       .  S
C1026      C2131   1.428       .  A
C1027      C2130   1.428       .  A
C1027      C1028   1.410       .  A
C1027      C1034   1.520       .  S
C1028      C1029   1.398       .  A
C1028      H1033   1.083       .  S
C1029      C2134   1.409   1_455  A
C1030      C2133   1.409       .  A
C1030      C1031   1.518       .  S
C1031      F1035   1.384       .  S
C1031      F1036   1.383       .  S
C1031      F1037   1.382       .  S
C1034      F1038   1.379       .  S
C1034      F1039   1.383   1_455  S
C1034      F1040   1.385       .  S
C1041      C1042   1.396       .  A
C1041      C1046   1.409       .  A
C1041      H1048   1.083       .  S
C1043      C1044   1.407       .  A
C1043      C1050   1.517       .  S
C1044      H1049   1.082       .  S
C1045      C1046   1.432   1_545  A
C1046      C1047   1.523   1_565  S
C1047      F1053   1.383   1_545  S
C1050      F1054   1.383       .  S
C1057      C1062   1.415       .  A
C1057      H1064   1.083       .  S
C1058      C1059   1.426       .  A
C1059      C1060   1.402       .  A
C1059      C1066   1.515       .  S
C1060      C1061   1.397       .  A
C1060      H1065   1.084       .  S
C1062      C1063   1.517       .  S
C1063      F1067   1.384       .  S
C1063      F1068   1.383       .  S
C1063      F1069   1.383       .  S
C1066      F1070   1.378       .  S
C1066      F1071   1.375       .  S
C1066      F1072   1.385       .  S
C1073      C2178   1.396       .  A
C1073      C1078   1.409       .  A
C1073      H1080   1.083       .  S
C1074      C2177   1.396       .  A
C1074      C1075   1.408   1_655  A
C1075      C1076   1.405       .  A
C1075      C1082   1.519       .  S
C1076      C1077   1.411   1_455  A
C1076      H1081   1.082       .  S
C1077      C2182   1.432       .  A
C1078      C2181   1.432       .  A
C1078      C1079   1.523       .  S
C1079      F1083   1.385       .  S
C1079      F1084   1.384       .  S
C1079      F1085   1.383       .  S
C1082      F1086   1.383       .  S
C1082      F1087   1.382       .  S
C1082      F1088   1.384       .  S
C1089      C2194   1.402       .  A
C1089      C1094   1.416       .  A
C1089      H1096   1.083       .  S
C1090      C2193   1.402       .  A
C1090      C1091   1.404       .  A
C1091      C1092   1.397       .  A
C1091      C1098   1.504       .  S
C1092      C1093   1.408       .  A
C1092      H1097   1.081       .  S
C1093      C1957   1.497       .  S
C1093      C2198   1.428       .  A
C1094      C2197   1.428       .  A
C1094      C1095   1.520       .  S
C1095      F1099   1.385       .  S
C1095      F1100   1.383       .  S
C1095      F1101   1.383       .  S
C1098      F1102   1.384       .  S
C1098      F1103   1.381       .  S
C1098      F1104   1.385       .  S
O1105     Cu1665   2.002       .  S
O1106     Cu1113   2.010       .  S
O1106      C1116   1.276       .  A
O1107     Cu1113   2.039       .  S
O1107      C1117   1.282       .  A
O1108      C1118   1.281       .  A
O1109     Cu1114   1.997       .  S
O1109      C1118   1.274       .  A
O1110      C1117   1.276       .  A
O1111     Cu1666   2.020       .  S
O1112     Cu1114   2.011       .  S
O1112      C1115   1.277       .  A
Cu1113     O1657   2.002   1_545  S
Cu1114     O1663   2.020       .  S
C1115      C1350   1.469       .  S
C1116      C1366   1.477   1_655  S
C1117      C1334   1.496   1_545  S
C1118      C1321   1.500       .  S
O1119     Cu1127   1.989       .  S
O1120     Cu1127   1.992       .  S
O1121     Cu1127   2.004       .  S
O1122     Cu1127   1.999       .  S
O1123     Cu1128   2.012       .  S
O1123      C1132   1.277       .  A
O1124     Cu1128   2.012       .  S
O1124      C1131   1.277       .  A
O1125     Cu1128   2.024       .  S
O1125      C1130   1.282       .  A
O1126     Cu1128   2.019       .  S
O1126      C1129   1.277       .  A
C1130      C1353   1.499       .  S
C1131      C1305   1.471       .  S
C1132      C1286   1.474       .  S
O1133     Cu1141   2.016       .  S
O1133      C1143   1.277       .  A
O1134     Cu1141   2.018       .  S
O1134      C1144   1.278       .  A
O1135     Cu1141   2.023       .  S
O1135      C1145   1.277       .  A
O1136     Cu1141   2.020       .  S
O1136      C1146   1.279       .  A
O1137     Cu1142   2.000       .  S
O1137      C1698   1.275   1_545  A
O1138     Cu1142   1.993       .  S
O1138      C1697   1.278   1_545  A
O1139     Cu1142   2.000       .  S
O1139      C1696   1.278   1_545  A
O1140     Cu1142   1.999       .  S
O1140      C1695   1.278   1_545  A
Cu1141    Cu1694   2.368       .  S
Cu1142    Cu1693   2.368   1_545  S
C1143      O1692   1.278       .  A
C1143      C1806   1.497       .  S
C1144      O1691   1.278       .  A
C1144      C1270   1.488       .  S
C1145      O1690   1.278       .  A
C1145      C1889   1.483       .  S
C1146      O1689   1.275       .  A
C1146      C1318   1.472       .  S
O1147     Cu1707   2.004       .  S
O1147      C1433   1.275       .  A
O1148     Cu1155   1.996       .  S
O1148      C1158   1.274       .  A
O1149     Cu1155   2.018       .  S
O1149      C1159   1.278       .  A
O1150     Cu1983   2.012       .  S
O1150      C1160   1.277       .  A
O1151     Cu1156   2.002       .  S
O1151      C1160   1.275       .  A
O1152     Cu1984   2.011       .  S
O1152      C1159   1.277       .  A
O1153     Cu1984   2.021       .  S
O1153      C1158   1.281       .  A
O1154     Cu1156   2.026       .  S
O1154      C1157   1.282       .  A
Cu1155     O1699   2.004       .  S
Cu1155     O1978   2.012   1_554  S
Cu1155    Cu1984   2.367       .  S
Cu1156     O1980   2.011       .  S
Cu1156     O1981   2.021   1_545  S
Cu1156    Cu1983   2.367       .  S
C1157      O1423   1.275       .  A
C1157      C1517   1.495       .  S
C1158      C1222   1.499       .  S
C1159      C1273   1.480       .  S
C1160      C1257   1.470   1_545  S
O1161     Cu1445   2.016   1_554  S
O1162     Cu1169   2.022       .  S
O1162      C1172   1.281       .  A
O1163     Cu1169   2.013       .  S
O1163      C1173   1.277       .  A
O1164      C1174   1.276   1_556  A
O1165     Cu1170   2.019   1_655  S
O1165      C1174   1.279       .  A
O1166      C1173   1.276       .  A
O1167      C1172   1.274       .  A
O1168     Cu1170   2.005       .  S
O1168      C1171   1.279       .  A
Cu1169     O1437   2.016       .  S
C1171      C1302   1.498       .  S
C1172      C1289   1.490       .  S
C1173      C1482   1.476       .  S
C1174      C1190   1.479       .  S
O1175     Cu1183   2.008       .  S
O1175      C1185   1.278   1_554  A
O1176     Cu1183   2.011       .  S
O1176      C1186   1.277       .  A
O1177     Cu1183   2.002       .  S
O1177      C1187   1.278   1_554  A
O1178     Cu1183   2.004       .  S
O1178      C1188   1.275       .  A
O1179     Cu1184   2.003       .  S
O1179      C1464   1.279       .  A
O1180     Cu1184   2.011       .  S
O1180      C1463   1.277       .  A
O1181     Cu1184   2.007       .  S
O1181      C1462   1.276       .  A
O1182     Cu1184   2.007       .  S
O1182      C1461   1.276       .  A
Cu1183    Cu1460   2.372   1_554  S
Cu1184    Cu1459   2.372       .  S
C1185      O1458   1.276       .  A
C1185      C1238   1.475       .  S
C1186      O1457   1.276   1_554  A
C1186      C1225   1.470       .  S
C1187      O1456   1.277       .  A
C1187      C1209   1.485       .  S
C1188      O1455   1.279   1_554  A
C1188      C1193   1.484       .  S
C1189      C1190   1.403       .  A
C1189      C1194   1.410       .  A
C1189      H1196   1.083       .  S
C1190      C1467   1.413   1_554  A
C1191      C1466   1.413       .  A
C1191      C1192   1.401       .  A
C1191      C1198   1.512       .  S
C1192      C1469   1.403       .  A
C1192      H1197   1.083       .  S
C1193      C1468   1.403   1_554  A
C1193      C1194   1.423       .  A
C1194      C1195   1.520       .  S
C1195      F1199   1.385       .  S
C1195      F1200   1.383       .  S
C1195      F1201   1.383       .  S
C1198      F1202   1.383       .  S
C1198      F1203   1.382       .  S
C1198      F1204   1.385       .  S
C1205      C1482   1.402       .  A
C1205      C1210   1.409       .  A
C1205      H1212   1.083       .  S
C1206      C1449   1.476       .  S
C1206      C1481   1.402       .  A
C1206      C1207   1.413   1_556  A
C1207      C1208   1.404       .  A
C1207      C1214   1.516       .  S
C1208      C1209   1.406   1_554  A
C1208      H1213   1.083       .  S
C1209      C1486   1.422       .  A
C1210      C1485   1.422       .  A
C1210      C1211   1.520       .  S
C1211      F1215   1.385       .  S
C1211      F1216   1.383       .  S
C1211      F1217   1.383       .  S
C1214      F1218   1.382       .  S
C1214      F1219   1.383       .  S
C1214      F1220   1.385       .  S
C1221      C1222   1.412       .  A
C1221      C1226   1.407       .  A
C1221      H1228   1.082       .  S
C1222      C1499   1.432       .  A
C1223      C1498   1.432       .  A
C1223      C1224   1.407       .  A
C1223      C1230   1.522       .  S
C1224      C1501   1.395       .  A
C1224      H1229   1.083       .  S
C1225      C1500   1.395       .  A
C1225      C1226   1.409       .  A
C1226      C1227   1.517       .  S
C1227      F1507   1.385       .  S
C1227      F1508   1.383   1_554  S
C1227      F1233   1.383       .  S
C1230      F1234   1.384       .  S
C1230      F1511   1.383       .  S
C1230      F1512   1.385       .  S
F1231      C1503   1.385       .  S
F1232      C1503   1.383       .  S
F1235      C1506   1.383   1_554  S
F1236      C1506   1.385       .  S
C1237      C1238   1.398   1_554  A
C1237      C1242   1.406       .  A
C1237      H1244   1.083       .  S
C1238      C1515   1.413       .  A
C1239      C1514   1.413       .  A
C1239      C1240   1.409       .  A
C1239      C1246   1.519       .  S
C1240      C1517   1.410       .  A
C1240      H1245   1.083       .  S
C1241      C1433   1.495   1_556  S
C1241      C1516   1.410       .  A
C1241      C1242   1.426   1_556  A
C1242      C1243   1.519       .  S
C1243      F1247   1.385       .  S
C1243      F1248   1.375       .  S
C1243      F1249   1.383   1_554  S
C1246      F1250   1.382       .  S
C1246      F1251   1.383       .  S
C1246      F1252   1.384       .  S
C1253      C1254   1.413   1_545  A
C1253      C1258   1.404       .  A
C1253      H1260   1.082       .  S
C1254      C1695   1.497       .  S
C1254      C1807   1.428       .  A
C1255      C1806   1.428       .  A
C1255      C1256   1.409       .  A
C1255      C1262   1.521       .  S
C1256      C1809   1.398       .  A
C1256      H1261   1.083       .  S
C1257      C1808   1.398       .  A
C1257      C1258   1.409   1_565  A
C1258      C1259   1.520       .  S
C1259      F1263   1.385       .  S
C1259      F1264   1.383       .  S
C1259      F1265   1.383       .  S
C1262      F1266   1.383       .  S
C1262      F1267   1.382       .  S
C1262      F1268   1.385       .  S
C1269      C1822   1.405   1_545  A
C1269      C1274   1.404       .  A
C1269      H1276   1.083       .  S
C1270      C1821   1.405       .  A
C1270      C1271   1.422       .  A
C1271      C1272   1.411       .  A
C1271      C1278   1.519       .  S
C1272      C1273   1.403       .  A
C1272      H1277   1.083       .  S
C1273      C1826   1.413       .  A
C1274      C1825   1.413   1_545  A
C1274      C1275   1.512       .  S
C1275      F1279   1.385       .  S
C1275      F1280   1.382       .  S
C1275      F1281   1.384       .  S
C1278      F1282   1.383       .  S
C1278      F1283   1.384       .  S
C1278      F1284   1.385       .  S
C1285      C1290   1.404       .  A
C1285      H1292   1.086       .  S
C1286      C1287   1.411       .  A
C1287      C1288   1.407       .  A
C1287      C1294   1.518       .  S
C1288      C1289   1.410       .  A
C1288      H1293   1.083       .  S
C1290      C1291   1.522       .  S
C1291      F1295   1.384       .  S
C1291      F1296   1.370       .  S
C1291      F1297   1.384       .  S
C1294      F1298   1.383       .  S
C1294      F1299   1.383       .  S
C1294      F1300   1.384       .  S
C1301      C1302   1.411   1_655  A
C1301      C1306   1.404       .  A
C1301      H1308   1.082       .  S
C1303      C1304   1.410       .  A
C1303      C1310   1.520       .  S
C1304      C1305   1.398       .  A
C1304      H1309   1.083       .  S
C1306      C1307   1.518       .  S
C1307      F1311   1.384       .  S
C1307      F1312   1.383   1_655  S
C1307      F1313   1.382       .  S
C1310      F1314   1.379       .  S
C1310      F1315   1.383       .  S
C1310      F1316   1.385       .  S
C1317      C1318   1.396       .  A
C1317      C1322   1.409       .  A
C1317      H1324   1.083       .  S
C1318      C1871   1.409       .  A
C1319      C1870   1.409   1_545  A
C1319      C1320   1.407       .  A
C1319      C1326   1.517       .  S
C1320      C1873   1.412       .  A
C1320      H1325   1.082       .  S
C1321      C1872   1.412       .  A
C1321      C1322   1.432       .  A
C1322      C1323   1.523       .  S
C1323      F1879   1.385       .  S
C1323      F1880   1.384       .  S
C1323      F1329   1.383       .  S
C1326      F1330   1.383       .  S
C1326      F1883   1.381   1_545  S
C1326      F1884   1.384       .  S
F1327      C1875   1.385   1_565  S
F1328      C1875   1.384       .  S
F1331      C1878   1.381       .  S
F1332      C1878   1.384       .  S
C1333      C1886   1.412       .  A
C1333      C1338   1.415       .  A
C1333      H1340   1.083       .  S
C1334      C1885   1.412       .  A
C1334      C1335   1.426   1_565  A
C1335      C1336   1.402       .  A
C1335      C1342   1.515       .  S
C1336      C1337   1.397   1_545  A
C1336      H1341   1.084       .  S
C1337      C1697   1.483       .  S
C1337      C1890   1.414       .  A
C1338      C1889   1.414       .  A
C1338      C1339   1.517       .  S
C1339      F1343   1.384       .  S
C1339      F1344   1.383       .  S
C1339      F1345   1.383       .  S
C1342      F1346   1.378       .  S
C1342      F1347   1.375       .  S
C1342      F1348   1.385       .  S
C1349      C1354   1.409       .  A
C1349      H1356   1.083       .  S
C1350      C1351   1.408       .  A
C1351      C1352   1.405       .  A
C1351      C1358   1.519       .  S
C1352      C1353   1.411       .  A
C1352      H1357   1.082       .  S
C1354      C1355   1.523       .  S
C1355      F1359   1.385       .  S
C1355      F1360   1.384       .  S
C1355      F1361   1.383       .  S
C1358      F1362   1.383       .  S
C1358      F1363   1.382       .  S
C1358      F1364   1.384       .  S
C1365      C1370   1.416       .  A
C1365      H1372   1.083       .  S
C1366      C1367   1.404   1_455  A
C1367      C1368   1.397       .  A
C1367      C1374   1.504       .  S
C1368      C1369   1.408   1_655  A
C1368      H1373   1.081       .  S
C1370      C1371   1.520       .  S
C1371      F1375   1.385       .  S
C1371      F1376   1.383       .  S
C1371      F1377   1.383       .  S
C1374      F1378   1.384       .  S
C1374      F1379   1.381       .  S
C1374      F1380   1.385       .  S
O1381     Cu1941   2.002       .  S
O1382     Cu1389   2.010       .  S
O1382      C1392   1.276       .  A
O1383     Cu1389   2.039       .  S
O1383      C1393   1.282       .  A
O1384      C1394   1.281       .  A
O1385     Cu1390   1.997       .  S
O1385      C1394   1.274       .  A
O1386      C1393   1.276       .  A
O1387     Cu1942   2.020       .  S
O1388     Cu1390   2.011       .  S
O1388      C1391   1.277       .  A
Cu1389     O1933   2.002   1_545  S
Cu1390     O1939   2.020       .  S
C1391      C1626   1.469       .  S
C1392      C1642   1.477   1_655  S
C1393      C1610   1.496   1_545  S
C1394      C1597   1.500       .  S
O1395     Cu1403   1.989       .  S
O1396     Cu1403   1.992       .  S
O1397     Cu1403   2.004       .  S
O1398     Cu1403   1.999       .  S
O1399     Cu1404   2.012       .  S
O1399      C1408   1.277       .  A
O1400     Cu1404   2.012       .  S
O1400      C1407   1.277       .  A
O1401     Cu1404   2.024       .  S
O1401      C1406   1.282       .  A
O1402     Cu1404   2.019       .  S
O1402      C1405   1.277       .  A
C1406      C1629   1.499       .  S
C1407      C1581   1.471       .  S
C1408      C1562   1.474       .  S
O1409     Cu1417   2.015       .  S
O1409      C1419   1.277       .  A
O1410     Cu1417   2.018       .  S
O1410      C1420   1.278       .  A
O1411     Cu1417   2.023       .  S
O1411      C1421   1.277       .  A
O1412     Cu1417   2.020       .  S
O1412      C1422   1.279       .  A
O1413     Cu1418   2.000       .  S
O1413      C1974   1.275   1_545  A
O1414     Cu1418   1.993       .  S
O1414      C1973   1.278   1_545  A
O1415     Cu1418   2.000       .  S
O1415      C1972   1.278   1_545  A
O1416     Cu1418   1.999       .  S
O1416      C1971   1.278   1_545  A
Cu1417    Cu1970   2.368       .  S
Cu1418    Cu1969   2.368   1_545  S
C1419      O1968   1.278       .  A
C1419      C2082   1.497       .  S
C1420      O1967   1.278       .  A
C1420      C1546   1.488       .  S
C1421      O1966   1.278       .  A
C1421      C2165   1.483       .  S
C1422      O1965   1.275       .  A
C1422      C1594   1.472       .  S
O1423     Cu1983   2.004       .  S
O1424     Cu1431   1.996       .  S
O1424      C1434   1.274       .  A
O1425     Cu1431   2.018       .  S
O1425      C1435   1.278       .  A
O1426     Cu1707   2.012   1_556  S
O1426      C1436   1.277       .  A
O1427     Cu1432   2.002   1_556  S
O1427      C1436   1.275       .  A
O1428     Cu1708   2.011       .  S
O1428      C1435   1.277       .  A
O1429     Cu1708   2.021       .  S
O1429      C1434   1.281       .  A
O1430     Cu1432   2.026       .  S
O1430      C1433   1.282       .  A
Cu1431     O1975   2.004       .  S
Cu1431     O1702   2.012       .  S
Cu1431    Cu1708   2.367       .  S
Cu1432     O1704   2.011       .  S
Cu1432     O1705   2.021   1_545  S
Cu1432    Cu1707   2.367       .  S
C1434      C1498   1.499       .  S
C1435      C1549   1.480       .  S
C1436      C1533   1.470   1_545  S
O1438     Cu1445   2.022       .  S
O1438      C1448   1.281       .  A
O1439     Cu1445   2.013       .  S
O1439      C1449   1.277       .  A
O1440      C1450   1.276       .  A
O1441     Cu1446   2.019   1_655  S
O1441      C1450   1.279       .  A
O1442      C1449   1.276   1_554  A
O1443      C1448   1.274       .  A
O1444     Cu1446   2.005       .  S
O1444      C1447   1.279       .  A
C1447      C1578   1.498       .  S
C1448      C1565   1.490       .  S
C1450      C1466   1.479       .  S
O1451     Cu1459   2.008       .  S
O1451      C1461   1.278       .  A
O1452     Cu1459   2.011       .  S
O1452      C1462   1.277       .  A
O1453     Cu1459   2.002       .  S
O1453      C1463   1.278       .  A
O1454     Cu1459   2.004       .  S
O1454      C1464   1.275       .  A
O1455     Cu1460   2.003       .  S
O1456     Cu1460   2.011       .  S
O1457     Cu1460   2.007       .  S
O1458     Cu1460   2.007       .  S
C1461      C1514   1.475       .  S
C1462      C1501   1.470       .  S
C1463      C1485   1.485       .  S
C1464      C1469   1.484       .  S
C1465      C1466   1.403       .  A
C1465      C1470   1.410       .  A
C1465      H1472   1.083       .  S
C1467      C1468   1.401       .  A
C1467      C1474   1.512       .  S
C1468      H1473   1.083       .  S
C1469      C1470   1.423       .  A
C1470      C1471   1.520       .  S
C1471      F1475   1.385       .  S
C1471      F1476   1.383       .  S
C1471      F1477   1.383       .  S
C1474      F1478   1.383       .  S
C1474      F1479   1.382       .  S
C1474      F1480   1.385       .  S
C1481      C1486   1.409       .  A
C1481      H1488   1.083       .  S
C1482      C1483   1.413       .  A
C1483      C1484   1.404       .  A
C1483      C1490   1.516       .  S
C1484      C1485   1.406       .  A
C1484      H1489   1.083       .  S
C1486      C1487   1.520       .  S
C1487      F1491   1.385       .  S
C1487      F1492   1.383       .  S
C1487      F1493   1.383       .  S
C1490      F1494   1.382       .  S
C1490      F1495   1.383       .  S
C1490      F1496   1.385       .  S
C1497      C1498   1.412       .  A
C1497      C1502   1.407       .  A
C1497      H1504   1.082       .  S
C1499      C1500   1.407       .  A
C1499      C1506   1.522   1_554  S
C1500      H1505   1.083   1_554  S
C1501      C1502   1.409       .  A
C1502      C1503   1.517       .  S
C1503      F1509   1.383       .  S
C1506      F1510   1.384       .  S
C1513      C1514   1.398       .  A
C1513      C1518   1.406       .  A
C1513      H1520   1.083       .  S
C1515      C1516   1.409       .  A
C1515      C1522   1.519       .  S
C1516      H1521   1.083       .  S
C1517      C1518   1.426       .  A
C1518      C1519   1.519       .  S
C1519      F1523   1.385       .  S
C1519      F1524   1.375       .  S
C1519      F1525   1.383       .  S
C1522      F1526   1.382       .  S
C1522      F1527   1.383       .  S
C1522      F1528   1.384       .  S
C1529      C1530   1.413   1_545  A
C1529      C1534   1.404       .  A
C1529      H1536   1.082       .  S
C1530      C1971   1.497       .  S
C1530      C2083   1.428       .  A
C1531      C2082   1.428       .  A
C1531      C1532   1.409       .  A
C1531      C1538   1.521       .  S
C1532      C2085   1.398       .  A
C1532      H1537   1.083       .  S
C1533      C2084   1.398       .  A
C1533      C1534   1.409   1_565  A
C1534      C1535   1.520       .  S
C1535      F1539   1.385       .  S
C1535      F1540   1.383       .  S
C1535      F1541   1.383       .  S
C1538      F1542   1.383       .  S
C1538      F1543   1.382       .  S
C1538      F1544   1.385       .  S
C1545      C2098   1.405   1_545  A
C1545      C1550   1.404       .  A
C1545      H1552   1.083       .  S
C1546      C2097   1.405       .  A
C1546      C1547   1.422       .  A
C1547      C1548   1.411       .  A
C1547      C1554   1.519       .  S
C1548      C1549   1.403       .  A
C1548      H1553   1.083       .  S
C1549      C2102   1.413       .  A
C1550      C2101   1.413   1_545  A
C1550      C1551   1.512       .  S
C1551      F1555   1.385       .  S
C1551      F1556   1.382       .  S
C1551      F1557   1.384       .  S
C1554      F1558   1.383       .  S
C1554      F1559   1.384       .  S
C1554      F1560   1.385       .  S
C1561      C1566   1.404       .  A
C1561      H1568   1.086       .  S
C1562      C1563   1.411       .  A
C1563      C1564   1.407       .  A
C1563      C1570   1.518       .  S
C1564      C1565   1.410       .  A
C1564      H1569   1.083       .  S
C1566      C1567   1.522       .  S
C1567      F1571   1.384       .  S
C1567      F1572   1.370       .  S
C1567      F1573   1.384       .  S
C1570      F1574   1.383       .  S
C1570      F1575   1.383       .  S
C1570      F1576   1.384       .  S
C1577      C1578   1.411   1_655  A
C1577      C1582   1.404       .  A
C1577      H1584   1.082       .  S
C1579      C1580   1.410       .  A
C1579      C1586   1.520       .  S
C1580      C1581   1.398       .  A
C1580      H1585   1.083       .  S
C1582      C1583   1.518       .  S
C1583      F1587   1.384       .  S
C1583      F1588   1.383   1_655  S
C1583      F1589   1.382       .  S
C1586      F1590   1.379       .  S
C1586      F1591   1.383       .  S
C1586      F1592   1.385       .  S
C1593      C1594   1.396       .  A
C1593      C1598   1.409       .  A
C1593      H1600   1.083       .  S
C1594      C2147   1.409       .  A
C1595      C2146   1.409   1_545  A
C1595      C1596   1.407       .  A
C1595      C1602   1.517       .  S
C1596      C2149   1.412       .  A
C1596      H1601   1.082       .  S
C1597      C2148   1.412       .  A
C1597      C1598   1.432       .  A
C1598      C1599   1.523       .  S
C1599      F2155   1.385       .  S
C1599      F2156   1.384       .  S
C1599      F1605   1.383       .  S
C1602      F1606   1.383       .  S
C1602      F2159   1.381   1_545  S
C1602      F2160   1.384       .  S
F1603      C2151   1.385   1_565  S
F1604      C2151   1.384       .  S
F1607      C2154   1.381       .  S
F1608      C2154   1.384       .  S
C1609      C2162   1.412       .  A
C1609      C1614   1.415       .  A
C1609      H1616   1.083       .  S
C1610      C2161   1.412       .  A
C1610      C1611   1.426   1_565  A
C1611      C1612   1.402       .  A
C1611      C1618   1.515       .  S
C1612      C1613   1.397   1_545  A
C1612      H1617   1.084       .  S
C1613      C1973   1.483       .  S
C1613      C2166   1.414       .  A
C1614      C2165   1.414       .  A
C1614      C1615   1.517       .  S
C1615      F1619   1.384       .  S
C1615      F1620   1.383       .  S
C1615      F1621   1.383       .  S
C1618      F1622   1.378       .  S
C1618      F1623   1.375       .  S
C1618      F1624   1.385       .  S
C1625      C1630   1.409       .  A
C1625      H1632   1.083       .  S
C1626      C1627   1.408       .  A
C1627      C1628   1.405       .  A
C1627      C1634   1.519       .  S
C1628      C1629   1.411       .  A
C1628      H1633   1.082       .  S
C1630      C1631   1.523       .  S
C1631      F1635   1.385       .  S
C1631      F1636   1.384       .  S
C1631      F1637   1.383       .  S
C1634      F1638   1.383       .  S
C1634      F1639   1.382       .  S
C1634      F1640   1.384       .  S
C1641      C1646   1.416       .  A
C1641      H1648   1.083       .  S
C1642      C1643   1.404   1_455  A
C1643      C1644   1.397       .  A
C1643      C1650   1.504       .  S
C1644      C1645   1.408   1_655  A
C1644      H1649   1.081       .  S
C1646      C1647   1.520       .  S
C1647      F1651   1.385       .  S
C1647      F1652   1.383       .  S
C1647      F1653   1.383       .  S
C1650      F1654   1.384       .  S
C1650      F1655   1.381       .  S
C1650      F1656   1.385       .  S
O1658     Cu1665   2.010       .  S
O1658      C1668   1.276       .  A
O1659     Cu1665   2.039       .  S
O1659      C1669   1.282       .  A
O1660      C1670   1.281       .  A
O1661     Cu1666   1.997       .  S
O1661      C1670   1.274       .  A
O1662      C1669   1.276       .  A
O1664     Cu1666   2.011   1_565  S
O1664      C1667   1.277       .  A
C1667      C1902   1.469       .  S
C1668      C1918   1.477   1_655  S
C1669      C1886   1.496       .  S
C1670      C1873   1.500       .  S
O1671     Cu1679   1.989       .  S
O1672     Cu1679   1.992       .  S
O1673     Cu1679   2.004       .  S
O1674     Cu1679   1.999       .  S
O1675     Cu1680   2.012       .  S
O1675      C1684   1.277       .  A
O1676     Cu1680   2.012       .  S
O1676      C1683   1.277       .  A
O1677     Cu1680   2.024       .  S
O1677      C1682   1.282       .  A
O1678     Cu1680   2.019       .  S
O1678      C1681   1.277       .  A
C1682      C1905   1.499       .  S
C1683      C1857   1.471       .  S
C1684      C1838   1.474       .  S
O1685     Cu1693   2.016       .  S
O1685      C1695   1.277       .  A
O1686     Cu1693   2.018       .  S
O1686      C1696   1.278       .  A
O1687     Cu1693   2.023       .  S
O1687      C1697   1.277       .  A
O1688     Cu1693   2.020       .  S
O1688      C1698   1.279       .  A
O1689     Cu1694   2.000       .  S
O1690     Cu1694   1.993       .  S
O1691     Cu1694   2.000       .  S
O1692     Cu1694   1.999       .  S
C1696      C1822   1.488       .  S
C1698      C1870   1.472       .  S
O1699      C1985   1.275       .  A
O1700     Cu1707   1.996   1_565  S
O1700      C1710   1.274       .  A
O1701     Cu1707   2.018       .  S
O1701      C1711   1.278       .  A
O1702      C1712   1.277       .  A
O1703     Cu1708   2.002       .  S
O1703      C1712   1.275       .  A
O1704      C1711   1.277       .  A
O1705      C1710   1.281       .  A
O1706     Cu1708   2.026       .  S
O1706      C1709   1.282       .  A
C1709      O1975   1.275       .  A
C1709      C2069   1.495       .  S
C1710      C1774   1.499       .  S
C1711      C1825   1.480   1_545  S
C1712      C1809   1.470       .  S
O1713     Cu1997   2.016   1_554  S
O1714     Cu1721   2.022       .  S
O1714      C1724   1.281       .  A
O1715     Cu1721   2.013       .  S
O1715      C1725   1.277       .  A
O1716      C1726   1.276   1_556  A
O1717     Cu1722   2.019   1_655  S
O1717      C1726   1.279       .  A
O1718      C1725   1.276       .  A
O1719      C1724   1.274       .  A
O1720     Cu1722   2.005       .  S
O1720      C1723   1.279       .  A
Cu1721     O1989   2.016       .  S
C1723      C1854   1.498       .  S
C1724      C1841   1.490       .  S
C1725      C2034   1.476       .  S
C1726      C1742   1.479       .  S
O1727     Cu1735   2.008       .  S
O1727      C1737   1.278   1_554  A
O1728     Cu1735   2.011       .  S
O1728      C1738   1.277       .  A
O1729     Cu1735   2.002       .  S
O1729      C1739   1.278   1_554  A
O1730     Cu1735   2.004       .  S
O1730      C1740   1.275       .  A
O1731     Cu1736   2.003       .  S
O1731      C2016   1.279       .  A
O1732     Cu1736   2.011       .  S
O1732      C2015   1.277       .  A
O1733     Cu1736   2.007       .  S
O1733      C2014   1.276       .  A
O1734     Cu1736   2.007       .  S
O1734      C2013   1.276       .  A
Cu1735    Cu2012   2.372   1_554  S
Cu1736    Cu2011   2.372       .  S
C1737      O2010   1.276       .  A
C1737      C1790   1.475       .  S
C1738      O2009   1.276   1_554  A
C1738      C1777   1.470       .  S
C1739      O2008   1.277       .  A
C1739      C1761   1.485       .  S
C1740      O2007   1.279   1_554  A
C1740      C1745   1.484       .  S
C1741      C1742   1.403       .  A
C1741      C1746   1.410       .  A
C1741      H1748   1.083       .  S
C1742      C2019   1.413   1_554  A
C1743      C2018   1.413       .  A
C1743      C1744   1.401       .  A
C1743      C1750   1.512       .  S
C1744      C2021   1.403       .  A
C1744      H1749   1.083       .  S
C1745      C2020   1.403   1_554  A
C1745      C1746   1.423       .  A
C1746      C1747   1.520       .  S
C1747      F1751   1.385       .  S
C1747      F1752   1.383       .  S
C1747      F1753   1.383       .  S
C1750      F1754   1.383       .  S
C1750      F1755   1.382       .  S
C1750      F1756   1.385       .  S
C1757      C2034   1.402       .  A
C1757      C1762   1.409       .  A
C1757      H1764   1.083       .  S
C1758      C2001   1.476       .  S
C1758      C2033   1.402       .  A
C1758      C1759   1.413   1_556  A
C1759      C1760   1.404       .  A
C1759      C1766   1.516       .  S
C1760      C1761   1.406   1_554  A
C1760      H1765   1.083       .  S
C1761      C2038   1.422       .  A
C1762      C2037   1.422       .  A
C1762      C1763   1.520       .  S
C1763      F1767   1.385       .  S
C1763      F1768   1.383       .  S
C1763      F1769   1.383       .  S
C1766      F1770   1.382       .  S
C1766      F1771   1.383       .  S
C1766      F1772   1.385       .  S
C1773      C1774   1.412       .  A
C1773      C1778   1.407       .  A
C1773      H1780   1.082       .  S
C1774      C2051   1.432       .  A
C1775      C2050   1.432       .  A
C1775      C1776   1.407       .  A
C1775      C1782   1.522       .  S
C1776      C2053   1.395       .  A
C1776      H1781   1.083       .  S
C1777      C2052   1.395       .  A
C1777      C1778   1.409       .  A
C1778      C1779   1.517       .  S
C1779      F2059   1.385       .  S
C1779      F2060   1.383   1_554  S
C1779      F1785   1.383       .  S
C1782      F1786   1.384       .  S
C1782      F2063   1.383       .  S
C1782      F2064   1.385       .  S
F1783      C2055   1.385       .  S
F1784      C2055   1.383       .  S
F1787      C2058   1.383   1_554  S
F1788      C2058   1.385       .  S
C1789      C1790   1.398   1_554  A
C1789      C1794   1.406       .  A
C1789      H1796   1.083       .  S
C1790      C2067   1.413       .  A
C1791      C2066   1.413       .  A
C1791      C1792   1.409       .  A
C1791      C1798   1.519       .  S
C1792      C2069   1.410       .  A
C1792      H1797   1.083       .  S
C1793      C1985   1.495   1_556  S
C1793      C2068   1.410       .  A
C1793      C1794   1.426   1_556  A
C1794      C1795   1.519       .  S
C1795      F1799   1.385       .  S
C1795      F1800   1.375       .  S
C1795      F1801   1.383   1_554  S
C1798      F1802   1.382       .  S
C1798      F1803   1.383       .  S
C1798      F1804   1.384       .  S
C1805      C1806   1.413       .  A
C1805      C1810   1.404       .  A
C1805      H1812   1.082       .  S
C1807      C1808   1.409       .  A
C1807      C1814   1.521       .  S
C1808      H1813   1.083       .  S
C1809      C1810   1.409       .  A
C1810      C1811   1.520       .  S
C1811      F1815   1.385       .  S
C1811      F1816   1.383       .  S
C1811      F1817   1.383       .  S
C1814      F1818   1.383       .  S
C1814      F1819   1.382       .  S
C1814      F1820   1.385       .  S
C1821      C1826   1.404       .  A
C1821      H1828   1.083       .  S
C1822      C1823   1.422       .  A
C1823      C1824   1.411       .  A
C1823      C1830   1.519       .  S
C1824      C1825   1.403       .  A
C1824      H1829   1.083       .  S
C1826      C1827   1.512       .  S
C1827      F1831   1.385       .  S
C1827      F1832   1.382       .  S
C1827      F1833   1.384       .  S
C1830      F1834   1.383       .  S
C1830      F1835   1.384       .  S
C1830      F1836   1.385       .  S
C1837      C1842   1.404       .  A
C1837      H1844   1.086       .  S
C1838      C1839   1.411       .  A
C1839      C1840   1.407       .  A
C1839      C1846   1.518       .  S
C1840      C1841   1.410       .  A
C1840      H1845   1.083       .  S
C1842      C1843   1.522       .  S
C1843      F1847   1.384       .  S
C1843      F1848   1.370       .  S
C1843      F1849   1.384       .  S
C1846      F1850   1.383       .  S
C1846      F1851   1.383       .  S
C1846      F1852   1.384       .  S
C1853      C1854   1.411   1_655  A
C1853      C1858   1.404       .  A
C1853      H1860   1.082       .  S
C1855      C1856   1.410       .  A
C1855      C1862   1.520       .  S
C1856      C1857   1.398       .  A
C1856      H1861   1.083       .  S
C1858      C1859   1.518       .  S
C1859      F1863   1.384       .  S
C1859      F1864   1.383   1_655  S
C1859      F1865   1.382       .  S
C1862      F1866   1.379       .  S
C1862      F1867   1.383       .  S
C1862      F1868   1.385       .  S
C1869      C1870   1.396       .  A
C1869      C1874   1.409       .  A
C1869      H1876   1.083       .  S
C1871      C1872   1.407       .  A
C1871      C1878   1.517       .  S
C1872      H1877   1.082       .  S
C1873      C1874   1.432   1_545  A
C1874      C1875   1.523   1_565  S
C1875      F1881   1.383   1_545  S
C1878      F1882   1.383       .  S
C1885      C1890   1.415       .  A
C1885      H1892   1.083       .  S
C1886      C1887   1.426       .  A
C1887      C1888   1.402       .  A
C1887      C1894   1.515       .  S
C1888      C1889   1.397       .  A
C1888      H1893   1.084       .  S
C1890      C1891   1.517       .  S
C1891      F1895   1.384       .  S
C1891      F1896   1.383       .  S
C1891      F1897   1.383       .  S
C1894      F1898   1.378       .  S
C1894      F1899   1.375       .  S
C1894      F1900   1.385       .  S
C1901      C1906   1.409       .  A
C1901      H1908   1.083       .  S
C1902      C1903   1.408       .  A
C1903      C1904   1.405       .  A
C1903      C1910   1.519       .  S
C1904      C1905   1.411       .  A
C1904      H1909   1.082       .  S
C1906      C1907   1.523       .  S
C1907      F1911   1.385       .  S
C1907      F1912   1.384       .  S
C1907      F1913   1.383       .  S
C1910      F1914   1.383       .  S
C1910      F1915   1.382       .  S
C1910      F1916   1.384       .  S
C1917      C1922   1.416       .  A
C1917      H1924   1.083       .  S
C1918      C1919   1.404   1_455  A
C1919      C1920   1.397       .  A
C1919      C1926   1.504       .  S
C1920      C1921   1.408   1_655  A
C1920      H1925   1.081       .  S
C1922      C1923   1.520       .  S
C1923      F1927   1.385       .  S
C1923      F1928   1.383       .  S
C1923      F1929   1.383       .  S
C1926      F1930   1.384       .  S
C1926      F1931   1.381       .  S
C1926      F1932   1.385       .  S
O1934     Cu1941   2.010       .  S
O1934      C1944   1.276       .  A
O1935     Cu1941   2.039       .  S
O1935      C1945   1.282       .  A
O1936      C1946   1.281       .  A
O1937     Cu1942   1.997       .  S
O1937      C1946   1.274       .  A
O1938      C1945   1.276       .  A
O1940     Cu1942   2.011   1_565  S
O1940      C1943   1.277       .  A
C1943      C2178   1.469       .  S
C1944      C2194   1.477   1_655  S
C1945      C2162   1.496       .  S
C1946      C2149   1.500       .  S
O1947     Cu1955   1.989       .  S
O1948     Cu1955   1.992       .  S
O1949     Cu1955   2.004       .  S
O1950     Cu1955   1.999       .  S
O1951     Cu1956   2.012       .  S
O1951      C1960   1.277       .  A
O1952     Cu1956   2.012       .  S
O1952      C1959   1.277       .  A
O1953     Cu1956   2.024       .  S
O1953      C1958   1.282       .  A
O1954     Cu1956   2.019       .  S
O1954      C1957   1.277       .  A
C1958      C2181   1.499       .  S
C1959      C2133   1.471       .  S
C1960      C2114   1.474       .  S
O1961     Cu1969   2.015       .  S
O1961      C1971   1.277       .  A
O1962     Cu1969   2.018       .  S
O1962      C1972   1.278       .  A
O1963     Cu1969   2.023       .  S
O1963      C1973   1.277       .  A
O1964     Cu1969   2.020       .  S
O1964      C1974   1.279       .  A
O1965     Cu1970   2.000       .  S
O1966     Cu1970   1.993       .  S
O1967     Cu1970   2.000       .  S
O1968     Cu1970   1.999       .  S
C1972      C2098   1.488       .  S
C1974      C2146   1.472       .  S
O1976     Cu1983   1.996   1_565  S
O1976      C1986   1.274       .  A
O1977     Cu1983   2.018       .  S
O1977      C1987   1.278       .  A
O1978      C1988   1.277       .  A
O1979     Cu1984   2.002   1_556  S
O1979      C1988   1.275       .  A
O1980      C1987   1.277       .  A
O1981      C1986   1.281       .  A
O1982     Cu1984   2.026       .  S
O1982      C1985   1.282       .  A
C1986      C2050   1.499       .  S
C1987      C2101   1.480   1_545  S
C1988      C2085   1.470       .  S
O1990     Cu1997   2.022       .  S
O1990      C2000   1.281       .  A
O1991     Cu1997   2.013       .  S
O1991      C2001   1.277       .  A
O1992      C2002   1.276       .  A
O1993     Cu1998   2.019   1_655  S
O1993      C2002   1.279       .  A
O1994      C2001   1.276   1_554  A
O1995      C2000   1.274       .  A
O1996     Cu1998   2.005       .  S
O1996      C1999   1.279       .  A
C1999      C2130   1.498       .  S
C2000      C2117   1.490       .  S
C2002      C2018   1.479       .  S
O2003     Cu2011   2.008       .  S
O2003      C2013   1.278       .  A
O2004     Cu2011   2.011       .  S
O2004      C2014   1.277       .  A
O2005     Cu2011   2.002       .  S
O2005      C2015   1.278       .  A
O2006     Cu2011   2.004       .  S
O2006      C2016   1.275       .  A
O2007     Cu2012   2.003       .  S
O2008     Cu2012   2.011       .  S
O2009     Cu2012   2.007       .  S
O2010     Cu2012   2.007       .  S
C2013      C2066   1.475       .  S
C2014      C2053   1.470       .  S
C2015      C2037   1.485       .  S
C2016      C2021   1.484       .  S
C2017      C2018   1.403       .  A
C2017      C2022   1.410       .  A
C2017      H2024   1.083       .  S
C2019      C2020   1.401       .  A
C2019      C2026   1.512       .  S
C2020      H2025   1.083       .  S
C2021      C2022   1.423       .  A
C2022      C2023   1.520       .  S
C2023      F2027   1.385       .  S
C2023      F2028   1.383       .  S
C2023      F2029   1.383       .  S
C2026      F2030   1.383       .  S
C2026      F2031   1.382       .  S
C2026      F2032   1.385       .  S
C2033      C2038   1.409       .  A
C2033      H2040   1.083       .  S
C2034      C2035   1.413       .  A
C2035      C2036   1.404       .  A
C2035      C2042   1.516       .  S
C2036      C2037   1.406       .  A
C2036      H2041   1.083       .  S
C2038      C2039   1.520       .  S
C2039      F2043   1.385       .  S
C2039      F2044   1.383       .  S
C2039      F2045   1.383       .  S
C2042      F2046   1.382       .  S
C2042      F2047   1.383       .  S
C2042      F2048   1.385       .  S
C2049      C2050   1.412       .  A
C2049      C2054   1.407       .  A
C2049      H2056   1.082       .  S
C2051      C2052   1.407       .  A
C2051      C2058   1.522   1_554  S
C2052      H2057   1.083   1_554  S
C2053      C2054   1.409       .  A
C2054      C2055   1.517       .  S
C2055      F2061   1.383       .  S
C2058      F2062   1.384       .  S
C2065      C2066   1.398       .  A
C2065      C2070   1.406       .  A
C2065      H2072   1.083       .  S
C2067      C2068   1.409       .  A
C2067      C2074   1.519       .  S
C2068      H2073   1.083       .  S
C2069      C2070   1.426       .  A
C2070      C2071   1.519       .  S
C2071      F2075   1.385       .  S
C2071      F2076   1.375       .  S
C2071      F2077   1.383       .  S
C2074      F2078   1.382       .  S
C2074      F2079   1.383       .  S
C2074      F2080   1.384       .  S
C2081      C2082   1.413       .  A
C2081      C2086   1.404       .  A
C2081      H2088   1.082       .  S
C2083      C2084   1.409       .  A
C2083      C2090   1.521       .  S
C2084      H2089   1.083       .  S
C2085      C2086   1.409       .  A
C2086      C2087   1.520       .  S
C2087      F2091   1.385       .  S
C2087      F2092   1.383       .  S
C2087      F2093   1.383       .  S
C2090      F2094   1.383       .  S
C2090      F2095   1.382       .  S
C2090      F2096   1.385       .  S
C2097      C2102   1.404       .  A
C2097      H2104   1.083       .  S
C2098      C2099   1.422       .  A
C2099      C2100   1.411       .  A
C2099      C2106   1.519       .  S
C2100      C2101   1.403       .  A
C2100      H2105   1.083       .  S
C2102      C2103   1.512       .  S
C2103      F2107   1.385       .  S
C2103      F2108   1.382       .  S
C2103      F2109   1.384       .  S
C2106      F2110   1.383       .  S
C2106      F2111   1.384       .  S
C2106      F2112   1.385       .  S
C2113      C2118   1.404       .  A
C2113      H2120   1.086       .  S
C2114      C2115   1.411       .  A
C2115      C2116   1.407       .  A
C2115      C2122   1.518       .  S
C2116      C2117   1.410       .  A
C2116      H2121   1.083       .  S
C2118      C2119   1.522       .  S
C2119      F2123   1.384       .  S
C2119      F2124   1.370       .  S
C2119      F2125   1.384       .  S
C2122      F2126   1.383       .  S
C2122      F2127   1.383       .  S
C2122      F2128   1.384       .  S
C2129      C2130   1.411   1_655  A
C2129      C2134   1.404       .  A
C2129      H2136   1.082       .  S
C2131      C2132   1.410       .  A
C2131      C2138   1.520       .  S
C2132      C2133   1.398       .  A
C2132      H2137   1.083       .  S
C2134      C2135   1.518       .  S
C2135      F2139   1.384       .  S
C2135      F2140   1.383   1_655  S
C2135      F2141   1.382       .  S
C2138      F2142   1.379       .  S
C2138      F2143   1.383       .  S
C2138      F2144   1.385       .  S
C2145      C2146   1.396       .  A
C2145      C2150   1.409       .  A
C2145      H2152   1.083       .  S
C2147      C2148   1.407       .  A
C2147      C2154   1.517       .  S
C2148      H2153   1.082       .  S
C2149      C2150   1.432   1_545  A
C2150      C2151   1.523   1_565  S
C2151      F2157   1.383   1_545  S
C2154      F2158   1.383       .  S
C2161      C2166   1.415       .  A
C2161      H2168   1.083       .  S
C2162      C2163   1.426       .  A
C2163      C2164   1.402       .  A
C2163      C2170   1.515       .  S
C2164      C2165   1.397       .  A
C2164      H2169   1.084       .  S
C2166      C2167   1.517       .  S
C2167      F2171   1.384       .  S
C2167      F2172   1.383       .  S
C2167      F2173   1.383       .  S
C2170      F2174   1.378       .  S
C2170      F2175   1.375       .  S
C2170      F2176   1.385       .  S
C2177      C2182   1.409       .  A
C2177      H2184   1.083       .  S
C2178      C2179   1.408       .  A
C2179      C2180   1.405       .  A
C2179      C2186   1.519       .  S
C2180      C2181   1.411       .  A
C2180      H2185   1.082       .  S
C2182      C2183   1.523       .  S
C2183      F2187   1.385       .  S
C2183      F2188   1.384       .  S
C2183      F2189   1.383       .  S
C2186      F2190   1.383       .  S
C2186      F2191   1.382       .  S
C2186      F2192   1.384       .  S
C2193      C2198   1.416       .  A
C2193      H2200   1.083       .  S
C2194      C2195   1.404   1_455  A
C2195      C2196   1.397       .  A
C2195      C2202   1.504       .  S
C2196      C2197   1.408   1_655  A
C2196      H2201   1.081       .  S
C2198      C2199   1.520       .  S
C2199      F2203   1.385       .  S
C2199      F2204   1.383       .  S
C2199      F2205   1.383       .  S
C2202      F2206   1.384       .  S
C2202      F2207   1.381       .  S
C2202      F2208   1.385       .  S
