geometry optimzed in LAMMPS
_audit_creation_date              2020-12-01 
_audit_creation_method            'lammps2cif' 
_symmetry_space_group_name_H-M    'P1' 
_symmetry_Int_Tables_number       1 
_symmetry_cell_setting            triclinic 
loop_ 
_symmetry_equiv_pos_as_xyz 
  x,y,z 
_cell_length_a                    44.00573935 
_cell_length_b                    33.70480456422089 
_cell_length_c                    35.32728007667194 
_cell_angle_alpha                 89.06199030787114 
_cell_angle_beta                  106.70274365338614 
_cell_angle_gamma                 90.04089235996543 
loop_ 
_atom_site_label 
_atom_site_type_symbol 
_atom_site_fract_x 
_atom_site_fract_y 
_atom_site_fract_z 
_atom_site_charge 
C1          C  0.59668627  0.41058876  0.87587985     0.87000
C2          C  0.63216272  0.41403584  0.89830424    -0.53300
C3          C  0.63919597  0.40462254  0.93780327     0.09900
C4          C  0.60986240  0.39279623  0.95079760     0.20800
C5          C  0.58778831  0.36792816  0.88434847    -0.54000
C6          C  0.59461913  0.35855696  0.92376043     0.10000
C7          C  0.57979891  0.43717218  0.89842285    -0.53500
C8          C  0.58638930  0.42764783  0.93777508     0.10600
H9          H  0.64974018  0.42281532  0.88373511     0.15100
H10         H  0.61535151  0.38509787  0.98277293     0.00800
H11         H  0.57764653  0.34707873  0.86105885     0.15400
H12         H  0.56413863  0.46118942  0.88400830     0.15200
C13         C  0.92787272  0.39461723  0.14705696     0.87000
C14         C  0.89257170  0.40208535  0.12494218    -0.53300
C15         C  0.88485037  0.39429274  0.08529456     0.09900
C16         C  0.91326003  0.38002380  0.07176854     0.20800
C17         C  0.93393431  0.35151569  0.13778845    -0.54000
C18         C  0.92643835  0.34374899  0.09831926     0.10000
C19         C  0.94627276  0.41976991  0.12454312    -0.53500
C20         C  0.93888937  0.41214443  0.08499314     0.10600
H21         H  0.87535355  0.41198482  0.13923891     0.15100
H22         H  0.90715472  0.37362881  0.03969890     0.00800
H23         H  0.94303677  0.32921151  0.16076554     0.15400
H24         H  0.96366153  0.44146852  0.13930130     0.15200
O25         O  0.51151979  0.98594481  0.94442913    -0.74000
O26         O  0.55093970  0.00825414  0.05329868    -0.74000
O27         O  0.52512268  0.94319166  0.01275160    -0.74000
O28         O  0.53733891  0.05128112  0.98503926    -0.74100
O29         O  0.48998770  0.06715276  0.99177704    -0.74000
O30         O  0.47782947  0.95902333  0.01971788    -0.74000
O31         O  0.50377907  0.02417595  0.06060953    -0.74000
O32         O  0.46421803  0.00182179  0.95130348    -0.74000
Ni33       Ni  0.53288345  0.99662380  0.99859855     1.25400
Ni34       Ni  0.48227269  0.01367020  0.00613834     1.25400
C35         C  0.48142204  0.98996150  0.92996538     0.88200
C36         C  0.53387568  0.01960877  0.07496574     0.88200
C37         C  0.49953377  0.93332139  0.02079620     0.88200
C38         C  0.51560791  0.07700733  0.98376439     0.88400
O39         O  0.97574565  0.00727873  0.94979804    -0.74000
O40         O  0.98392867  0.97127257  0.05596572    -0.74000
O41         O  0.97481956  0.04265317  0.01804980    -0.74000
O42         O  0.98483381  0.93582929  0.98799882    -0.74100
O43         O  0.03722014  0.94430265  0.00340447    -0.74000
O44         O  0.02721185  0.05113403  0.03368825    -0.74000
O45         O  0.03632579  0.97955051  0.07141572    -0.74000
O46         O  0.02809241  0.01594579  0.96527498    -0.74000
Ni47       Ni  0.97797602  0.98897942  0.00234998     1.25400
Ni48       Ni  0.03407464  0.99807045  0.01893648     1.25400
C49         C  0.00058386  0.01745297  0.93999865     0.88200
C50         C  0.01144673  0.96946174  0.08116478     0.88200
C51         C  0.99941665  0.06431932  0.03128071     0.88200
C52         C  0.01265955  0.92235694  0.99111839     0.88400
C53         C  0.43111818  0.59950043  0.13951355     0.87000
C54         C  0.44954703  0.57484320  0.11730573    -0.53300
C55         C  0.44221477  0.58391079  0.07773376     0.09900
C56         C  0.41686518  0.61677178  0.06442437     0.20800
C57         C  0.43774283  0.64281514  0.13054396    -0.54000
C58         C  0.43032626  0.65196502  0.09112003     0.10000
C59         C  0.39597283  0.59323462  0.11741593    -0.53500
C60         C  0.38830942  0.60229518  0.07780896     0.10600
H61         H  0.46670189  0.55246087  0.13213834     0.15100
H62         H  0.41085707  0.62433905  0.03237821     0.00800
H63         H  0.44681519  0.66437961  0.15349664     0.15400
H64         H  0.37908552  0.58313955  0.13250360     0.15200
C65         C  0.09590520  0.59541124  0.88645846     0.87000
C66         C  0.07991329  0.56596809  0.90828764    -0.53300
C67         C  0.08788777  0.57137536  0.94836033     0.09900
C68         C  0.11163711  0.60550629  0.96252141     0.20800
C69         C  0.08728949  0.63647440  0.89843873    -0.54000
C70         C  0.09527395  0.64186537  0.93831461     0.10000
C71         C  0.13157475  0.59094844  0.90661654    -0.53500
C72         C  0.14006528  0.59634864  0.94664636     0.10600
H73         H  0.06351335  0.54355362  0.89287887     0.15100
H74         H  0.11832357  0.61002064  0.99496267     0.00800
H75         H  0.07628538  0.65942215  0.87697623     0.15400
H76         H  0.14821080  0.58383765  0.89026061     0.15200
C77         C  0.09574362  0.89969638  0.38597302     0.87000
C78         C  0.13069257  0.90321382  0.40997676    -0.53300
C79         C  0.13659323  0.89478175  0.44945994     0.09900
C80         C  0.10640471  0.88381224  0.46102315     0.20800
C81         C  0.08637020  0.85732746  0.39476022    -0.54000
C82         C  0.09204202  0.84888606  0.43427515     0.10000
C83         C  0.07778859  0.92707969  0.40655838    -0.53500
C84         C  0.08305491  0.91860728  0.44601209     0.10600
H85         H  0.14892774  0.91049157  0.39598481     0.15100
H86         H  0.11091326  0.87692075  0.49304017     0.00800
H87         H  0.07586019  0.83644054  0.37165470     0.15400
H88         H  0.06250658  0.95092184  0.39093684     0.15200
C89         C  0.42913829  0.88302159  0.64153153     0.87000
C90         C  0.39327888  0.88572751  0.62202873    -0.53300
C91         C  0.38430305  0.87816602  0.58233132     0.09900
C92         C  0.41251920  0.86810309  0.56626262     0.20800
C93         C  0.43867626  0.84151660  0.63196574    -0.54000
C94         C  0.42989857  0.83332847  0.59267763     0.10000
C95         C  0.44379800  0.91133703  0.61742754    -0.53500
C96         C  0.43551674  0.90347033  0.57787577     0.10600
H97         H  0.37702122  0.89357045  0.63864525     0.15100
H98         H  0.40561522  0.86191640  0.53414042     0.00800
H99         H  0.45151273  0.82035756  0.65440404     0.15400
H100        H  0.45925762  0.93541713  0.63099712     0.15200
O101        O  0.47662537  0.53870227  0.50690928    -0.74000
O102        O  0.50566874  0.43302917  0.49722274    -0.74000
O103        O  0.48125050  0.49386853  0.44608603    -0.74000
O104        O  0.50111553  0.47790596  0.55815906    -0.74100
O105        O  0.45215952  0.45547289  0.55120483    -0.74000
O106        O  0.43256754  0.47027816  0.43873507    -0.74000
O107        O  0.45697547  0.40991844  0.49076369    -0.74000
O108        O  0.42771061  0.51585557  0.49933151    -0.74000
Ni109      Ni  0.49288113  0.48668889  0.50233825     1.25400
Ni110      Ni  0.44059946  0.46206561  0.49472627     1.25400
C111        C  0.44735123  0.54474151  0.50449514     0.88200
C112        C  0.48616974  0.40400433  0.49281562     0.88200
C113        C  0.45357518  0.48503690  0.42398301     0.88200
C114        C  0.48002678  0.46371355  0.57313455     0.88400
O115        O  0.05622286  0.48434515  0.56962230    -0.74000
O116        O  0.01291162  0.46510648  0.46046175    -0.74000
O117        O  0.05297034  0.52187553  0.49970026    -0.74000
O118        O  0.01625435  0.42757750  0.53004959    -0.74100
O119        O  0.97483173  0.46293391  0.53514503    -0.74000
O120        O  0.01169145  0.55724760  0.50520217    -0.74000
O121        O  0.97163411  0.50071299  0.46560861    -0.74000
O122        O  0.01466204  0.51951926  0.57449068    -0.74000
Ni123      Ni  0.03608741  0.47347986  0.51478843     1.25400
Ni124      Ni  0.99175094  0.51135672  0.52027911     1.25400
C125        C  0.04242798  0.50495657  0.59008725     0.88200
C126        C  0.98510803  0.47976601  0.44509583     0.88200
C127        C  0.03836819  0.55508944  0.49743118     0.88200
C128        C  0.98948172  0.42974069  0.53755575     0.88400
C129        C  0.58324664  0.09313927  0.37532826     0.87000
C130        C  0.56653152  0.06814041  0.39977377    -0.53300
C131        C  0.57352529  0.07835056  0.43860567     0.09900
C132        C  0.59737015  0.11283796  0.44947118     0.20800
C133        C  0.57509928  0.13621295  0.38166779    -0.54000
C134        C  0.58214958  0.14670676  0.42028972     0.10000
C135        C  0.61884160  0.08899735  0.39738093    -0.53500
C136        C  0.62644167  0.09979322  0.43632671     0.10600
H137        H  0.55075735  0.04407900  0.38689201     0.15100
H138        H  0.60343571  0.12119861  0.48102924     0.00800
H139        H  0.56422945  0.15666554  0.35745921     0.15400
H140        H  0.63630045  0.07859862  0.38367556     0.15200
C141        C  0.91566662  0.08747640  0.63480589     0.87000
C142        C  0.93379391  0.06165249  0.61303461    -0.53300
C143        C  0.92882512  0.07233698  0.57412286     0.09900
C144        C  0.90552972  0.10741838  0.56067369     0.20800
C145        C  0.92533096  0.13033115  0.62834899    -0.54000
C146        C  0.92019201  0.14081814  0.58933616     0.10000
C147        C  0.88075407  0.08476372  0.61030557    -0.53500
C148        C  0.87513564  0.09566659  0.57146365     0.10600
H149        H  0.94921890  0.03741396  0.62748799     0.15100
H150        H  0.90123915  0.11598153  0.52905303     0.00800
H151        H  0.93619798  0.14971305  0.65268259     0.15400
H152        H  0.86221827  0.07494714  0.62291951     0.15200
C153        C  0.71902612  0.10066546  0.47835343     0.19200
C154        C  0.74391184  0.08872451  0.46343731    -0.18900
C155        C  0.77551850  0.08926229  0.48704920    -0.11200
C156        C  0.78312122  0.10225870  0.52629678     0.21400
C157        C  0.75828430  0.11484467  0.54101698    -0.20600
C158        C  0.72666993  0.11424543  0.51742211    -0.11400
C159        C  0.81612279  0.10141093  0.55358838    -0.15500
C160        C  0.84287682  0.09718579  0.54241789    -0.29400
C161        C  0.68580889  0.09926130  0.45170605    -0.03700
C162        C  0.65936296  0.10058881  0.46389071    -0.40200
H163        H  0.73883329  0.07830903  0.43341676     0.12600
H164        H  0.79365489  0.07864663  0.47455924     0.12200
H165        H  0.76335207  0.12515339  0.57107563     0.11600
H166        H  0.70853242  0.12481761  0.52993358     0.11900
H167        H  0.81834474  0.10536906  0.58469263     0.14600
H168        H  0.84164584  0.09651573  0.51135964     0.13400
H169        H  0.68336938  0.09668090  0.42043631     0.11100
H170        H  0.66139891  0.10322464  0.49504018     0.13100
C171        C  0.94911868  0.24887567  0.58294804     0.19200
C172        C  0.94484030  0.28494771  0.60008559    -0.18900
C173        C  0.95639994  0.32042983  0.58849410    -0.11200
C174        C  0.97285567  0.32045451  0.55971793     0.21400
C175        C  0.97759386  0.28428258  0.54308165    -0.20600
C176        C  0.96576073  0.24888037  0.55436705    -0.11400
C177        C  0.98678707  0.35715061  0.54782638    -0.15500
C178        C  0.97506096  0.39376244  0.54947769    -0.29400
C179        C  0.93769169  0.21157936  0.59722833    -0.03700
C180        C  0.92978564  0.17913138  0.57479881    -0.40200
H181        H  0.93260801  0.28564538  0.62265791     0.12600
H182        H  0.95315572  0.34750741  0.60291832     0.12200
H183        H  0.99062322  0.28339343  0.52133517     0.11600
H184        H  0.97050117  0.22151772  0.54147080     0.11900
H185        H  0.00683639  0.35368931  0.53597141     0.14600
H186        H  0.95385578  0.39762416  0.55888109     0.13400
H187        H  0.93500656  0.21143967  0.62680873     0.11100
H188        H  0.92995437  0.18041766  0.54415513     0.13100
C189        C  0.55936481  0.23711926  0.47233426     0.19200
C190        C  0.53746115  0.24212968  0.49399212    -0.18900
C191        C  0.52656198  0.28008794  0.49943802    -0.11200
C192        C  0.53778318  0.31384410  0.48372268     0.21400
C193        C  0.56083286  0.30889510  0.46378552    -0.20600
C194        C  0.57141003  0.27101610  0.45793270    -0.11400
C195        C  0.52656398  0.35467238  0.48808488    -0.15500
C196        C  0.49717677  0.36289703  0.49027489    -0.29400
C197        C  0.56896695  0.19637557  0.46468780    -0.03700
C198        C  0.57563360  0.18752616  0.43095684    -0.40200
H199        H  0.52822536  0.21654512  0.50595070     0.12600
H200        H  0.50958924  0.28291627  0.51614850     0.12200
H201        H  0.57030037  0.33444277  0.45205172     0.11600
H202        H  0.58912159  0.26838533  0.44226808     0.11900
H203        H  0.54248422  0.37905788  0.48700301     0.14600
H204        H  0.48031786  0.33907360  0.48901161     0.13400
H205        H  0.56775123  0.17270202  0.48542605     0.11100
H206        H  0.57359625  0.21052830  0.40846033     0.13100
C207        C  0.51824758  0.01453309  0.48378180     0.19200
C208        C  0.48757301  0.99901450  0.46834754    -0.18900
C209        C  0.47300164  0.97720241  0.49230427    -0.11200
C210        C  0.48899827  0.97006973  0.53242875     0.21400
C211        C  0.51967599  0.98555917  0.54782108    -0.20600
C212        C  0.53423411  0.00735298  0.52387808    -0.11400
C213        C  0.47476558  0.94761447  0.55976345    -0.15500
C214        C  0.44800749  0.92572868  0.54874454    -0.29400
C215        C  0.53281639  0.03648610  0.45648297    -0.03700
C216        C  0.55957153  0.05841115  0.46768801    -0.40200
H217        H  0.47470177  0.00390543  0.43751683     0.12600
H218        H  0.44919948  0.96653205  0.47919429     0.12200
H219        H  0.53262285  0.98054577  0.57860685     0.11600
H220        H  0.55810205  0.01783954  0.53694400     0.11900
H221        H  0.48800156  0.94825997  0.59079525     0.14600
H222        H  0.43552450  0.92213815  0.51776448     0.13400
H223        H  0.52013242  0.03492648  0.42531723     0.11100
H224        H  0.57134851  0.06307953  0.49870335     0.13100
C225        C  0.43022515  0.73687498  0.53521507     0.19200
C226        C  0.40614760  0.71011554  0.51721496    -0.18900
C227        C  0.41360976  0.67117613  0.50948069    -0.11200
C228        C  0.44546994  0.65842211  0.51924403     0.21400
C229        C  0.46948154  0.68585285  0.53564985    -0.20600
C230        C  0.46202057  0.72451741  0.54368301    -0.11400
C231        C  0.45504735  0.61722161  0.51277541    -0.15500
C232        C  0.43579494  0.58542234  0.50800936    -0.29400
C233        C  0.42178267  0.77722934  0.54556964    -0.03700
C234        C  0.43868782  0.79488179  0.57882112    -0.40200
H235        H  0.38148433  0.71910113  0.50994630     0.12600
H236        H  0.39437122  0.65145052  0.49569903     0.12200
H237        H  0.49421242  0.67715159  0.54288668     0.11600
H238        H  0.48120977  0.74475024  0.55646715     0.11900
H239        H  0.47975845  0.61258407  0.51401295     0.14600
H240        H  0.41124821  0.58871998  0.50782861     0.13400
H241        H  0.39994707  0.79094302  0.52763121     0.11100
H242        H  0.45861394  0.77904625  0.59867333     0.13100
C243        C  0.99016258  0.01663733  0.53321903     0.19200
C244        C  0.02227757  0.00614255  0.54931328    -0.18900
C245        C  0.03945843  0.98900188  0.52590423    -0.11200
C246        C  0.02475909  0.98155906  0.48571274     0.21400
C247        C  0.99279663  0.99253596  0.46950139    -0.20600
C248        C  0.97559832  0.00956386  0.49290501    -0.11400
C249        C  0.04174623  0.96287750  0.45952317    -0.15500
C250        C  0.06770976  0.93953482  0.47268926    -0.29400
C251        C  0.97268694  0.03368305  0.55976322    -0.03700
C252        C  0.94508386  0.05403657  0.54698525    -0.40200
H253        H  0.03420512  0.01135121  0.58019680     0.12600
H254        H  0.06424993  0.98208017  0.53937043     0.12200
H255        H  0.98085185  0.98723875  0.43863839     0.11600
H256        H  0.95080069  0.01626643  0.47932719     0.11900
H257        H  0.03101487  0.96661132  0.42794752     0.14600
H258        H  0.07717703  0.93320587  0.50407300     0.13400
H259        H  0.98395015  0.03071057  0.59132312     0.11100
H260        H  0.93481920  0.06012060  0.51569308     0.13100
C261        C  0.05358119  0.66492288  0.47480418     0.19200
C262        C  0.04644454  0.70101610  0.48964288    -0.18900
C263        C  0.05580489  0.73713397  0.47659484    -0.11200
C264        C  0.07252080  0.73804852  0.44810254     0.21400
C265        C  0.07976652  0.70194436  0.43326941    -0.20600
C266        C  0.07055268  0.66571450  0.44654255    -0.11400
C267        C  0.08086555  0.77606388  0.43147367    -0.15500
C268        C  0.08468296  0.81054300  0.45107933    -0.29400
C269        C  0.04090742  0.62765856  0.48758304    -0.03700
C270        C  0.05259204  0.59115548  0.48523059    -0.40200
H271        H  0.03308557  0.70132498  0.51105666     0.12600
H272        H  0.04887326  0.76421876  0.48792697     0.12200
H273        H  0.09227050  0.70180048  0.41095713     0.11600
H274        H  0.07582917  0.63866918  0.43358510     0.11900
H275        H  0.08477247  0.77523127  0.40252556     0.14600
H276        H  0.08362882  0.81087429  0.48136532     0.13400
H277        H  0.02127741  0.63061687  0.50028129     0.11100
H278        H  0.07331622  0.58740878  0.47483221     0.13100
C279        C  0.29239986  0.89097048  0.54297650     0.19200
C280        C  0.26723162  0.88657563  0.55978886    -0.18900
C281        C  0.23564697  0.89042865  0.53658329    -0.11200
C282        C  0.22853448  0.89906749  0.49584971     0.21400
C283        C  0.25377018  0.90411443  0.47926021    -0.20600
C284        C  0.28527913  0.90017211  0.50240526    -0.11400
C285        C  0.19555560  0.90375648  0.46931269    -0.15500
C286        C  0.16890373  0.89277325  0.47839406    -0.29400
C287        C  0.32558811  0.88763062  0.56910405    -0.03700
C288        C  0.35102719  0.88023744  0.55608235    -0.40200
H289        H  0.27203310  0.88011325  0.59110469     0.12600
H290        H  0.21715873  0.88715768  0.55094834     0.12200
H291        H  0.24910412  0.91123869  0.44808592     0.11600
H292        H  0.30384140  0.90520501  0.48843129     0.11900
H293        H  0.19363629  0.91599010  0.44020363     0.14600
H294        H  0.17038416  0.88046356  0.50737514     0.13400
H295        H  0.32870275  0.89062977  0.60045946     0.11100
H296        H  0.34774169  0.87507628  0.52496610     0.13100
C297        C  0.05912389  0.54011711  0.69807501     0.19200
C298        C  0.04452373  0.56852484  0.71571818    -0.18900
C299        C  0.05504561  0.57484541  0.75634146    -0.11200
C300        C  0.08077990  0.55299221  0.78058240     0.21400
C301        C  0.09547719  0.52453284  0.76305366    -0.20600
C302        C  0.08487734  0.51813473  0.72223226    -0.11400
C303        C  0.09167570  0.55782043  0.82426947    -0.15500
C304        C  0.08630936  0.59101102  0.84206378    -0.29400
C305        C  0.04527246  0.53330225  0.65497481    -0.03700
C306        C  0.05874358  0.51151271  0.63241805    -0.40200
H307        H  0.02441539  0.58556185  0.69803743     0.12600
H308        H  0.04217384  0.59602885  0.76855755     0.12200
H309        H  0.11508842  0.50695351  0.78107197     0.11600
H310        H  0.09647692  0.49536622  0.71018261     0.11900
H311        H  0.10476547  0.53357999  0.84240446     0.14600
H312        H  0.07483751  0.61623757  0.82421316     0.13400
H313        H  0.02242718  0.54720168  0.64100108     0.11100
H314        H  0.08190295  0.49803561  0.64477259     0.13100
C315        C  0.44337167  0.54394659  0.24040700     0.19200
C316        C  0.42941145  0.51034416  0.25235491    -0.18900
C317        C  0.43584175  0.50003450  0.29242242    -0.11200
C318        C  0.45659949  0.52313914  0.32145465     0.21400
C319        C  0.47121182  0.55610481  0.30945758    -0.20600
C320        C  0.46472770  0.56647912  0.26945994    -0.11400
C321        C  0.46450171  0.51322719  0.36433077    -0.15500
C322        C  0.44537112  0.49234743  0.38086588    -0.29400
C323        C  0.43565427  0.55388776  0.19748576    -0.03700
C324        C  0.43956132  0.59024566  0.18331579    -0.40200
H325        H  0.41333257  0.49206754  0.23058656     0.12600
H326        H  0.42494196  0.47363157  0.30037597     0.12200
H327        H  0.48770033  0.57401489  0.33117620     0.11600
H328        H  0.47698937  0.59170841  0.26163567     0.11900
H329        H  0.48636400  0.52537784  0.38335843     0.14600
H330        H  0.42251417  0.48196362  0.36289055     0.13400
H331        H  0.42534253  0.53081235  0.17657758     0.11100
H332        H  0.44849978  0.61427030  0.20347801     0.13100
C333        C  0.23239402  0.59299747  0.98572538     0.19200
C334        C  0.25683567  0.60670146  0.97067971    -0.18900
C335        C  0.28853805  0.60538910  0.99382728    -0.11200
C336        C  0.29664707  0.58985306  0.03274914     0.21400
C337        C  0.27218034  0.57536995  0.04741377    -0.20600
C338        C  0.24048979  0.57679987  0.02428374    -0.11400
C339        C  0.32977914  0.58905490  0.05970667    -0.15500
C340        C  0.35578842  0.60076062  0.04957043    -0.29400
C341        C  0.19906046  0.59504774  0.95977958    -0.03700
C342        C  0.17322282  0.59395670  0.97313643    -0.40200
H343        H  0.25134093  0.61896918  0.94092779     0.12600
H344        H  0.30621132  0.61702958  0.98091780     0.12200
H345        H  0.27757883  0.56293900  0.07709061     0.11600
H346        H  0.22259310  0.56470160  0.03664915     0.11900
H347        H  0.33246655  0.57874049  0.08969147     0.14600
H348        H  0.35375526  0.61044489  0.01960135     0.13400
H349        H  0.19597226  0.59931553  0.92841084     0.11100
H350        H  0.17607981  0.59284705  0.00465020     0.13100
C351        C  0.06012650  0.74377307  0.95316941     0.19200
C352        C  0.03017045  0.76156398  0.93807726    -0.18900
C353        C  0.02446323  0.79995682  0.94878663    -0.11200
C354        C  0.04877914  0.82159449  0.97493401     0.21400
C355        C  0.07874386  0.80370215  0.99010878    -0.20600
C356        C  0.08441603  0.76520433  0.97945191    -0.11400
C357        C  0.04444975  0.86336420  0.98555828    -0.15500
C358        C  0.01596876  0.88076367  0.98039947    -0.29400
C359        C  0.06573185  0.70447561  0.93797251    -0.03700
C360        C  0.08927994  0.67933175  0.95662532    -0.40200
H361        H  0.01119144  0.74591398  0.91729857     0.12600
H362        H  0.00127743  0.81273718  0.93539625     0.12200
H363        H  0.09801713  0.81980822  0.00990096     0.11600
H364        H  0.10808252  0.75299011  0.99077304     0.11900
H365        H  0.06575319  0.88034119  0.99884201     0.14600
H366        H  0.99425359  0.86415269  0.96901223     0.09800
H367        H  0.04926588  0.69576474  0.91010948     0.11100
H368        H  0.10410977  0.68558437  0.98619120     0.13100
C369        C  0.96566572  0.04507069  0.82873638     0.19200
C370        C  0.93508902  0.05541623  0.80526403    -0.18900
C371        C  0.92945902  0.06613948  0.76543735    -0.11200
C372        C  0.95431757  0.06614432  0.74768799     0.21400
C373        C  0.98503295  0.05633610  0.77126508    -0.20600
C374        C  0.99069886  0.04571845  0.81126128    -0.11400
C375        C  0.94923242  0.07684872  0.70510794    -0.15500
C376        C  0.92065976  0.07576440  0.67778073    -0.29400
C377        C  0.96983295  0.03251054  0.87064131    -0.03700
C378        C  0.99789757  0.03089445  0.89898054    -0.40200
H379        H  0.91536861  0.05539903  0.81788178     0.12600
H380        H  0.90562168  0.07484385  0.74904933     0.12200
H381        H  0.00467726  0.05628434  0.75852178     0.11600
H382        H  0.01453899  0.03726530  0.82791623     0.11900
H383        H  0.96980436  0.08514103  0.69560580     0.14600
H384        H  0.90004718  0.06591565  0.68623758     0.13400
H385        H  0.94847169  0.02478309  0.87864585     0.11100
H386        H  0.01955393  0.03970046  0.89239836     0.13100
C387        C  0.05705742  0.91821434  0.27270211     0.19200
C388        C  0.02673256  0.92987938  0.24939859    -0.18900
C389        C  0.02126927  0.94024960  0.20940053    -0.11200
C390        C  0.04609241  0.93874053  0.19160939     0.21400
C391        C  0.07624692  0.92636632  0.21477905    -0.20600
C392        C  0.08167973  0.91594942  0.25465849    -0.11400
C393        C  0.04218212  0.95121333  0.14973747    -0.15500
C394        C  0.01401714  0.95581367  0.12202898    -0.29400
C395        C  0.06203802  0.90834579  0.31542250    -0.03700
C396        C  0.09069086  0.90924334  0.34251646    -0.40200
H397        H  0.00728745  0.93171456  0.26239255     0.12600
H398        H  0.99777351  0.95026624  0.19305716     0.12200
H399        H  0.09578823  0.92467884  0.20193080     0.11600
H400        H  0.10515619  0.90575827  0.27090338     0.11900
H401        H  0.06372739  0.95648396  0.14124952     0.14600
H402        H  0.99208036  0.94921583  0.12894627     0.13400
H403        H  0.04136489  0.90149823  0.32528282     0.11100
H404        H  0.11133284  0.91792761  0.33350507     0.13100
C405        C  0.46549928  0.83647668  0.05153120     0.19200
C406        C  0.43543019  0.81872604  0.04179586    -0.18900
C407        C  0.43162818  0.78027322  0.05525277    -0.11200
C408        C  0.45784820  0.75909501  0.07921261     0.21400
C409        C  0.48771723  0.77722051  0.08984057    -0.20600
C410        C  0.49160740  0.81539295  0.07597059    -0.11400
C411        C  0.45454654  0.71887988  0.09510056    -0.15500
C412        C  0.43363497  0.69211434  0.07495239    -0.29400
C413        C  0.46866806  0.87770172  0.03763650    -0.03700
C414        C  0.49577251  0.89168678  0.03215620    -0.40200
H415        H  0.41485584  0.83463654  0.02368362     0.12600
H416        H  0.40809753  0.76753412  0.04762237     0.12200
H417        H  0.50813299  0.76173059  0.10886824     0.11600
H418        H  0.51492686  0.82861687  0.08532885     0.11900
H419        H  0.47104797  0.71047115  0.12337215     0.14600
H420        H  0.41930089  0.69905900  0.04503721     0.13400
H421        H  0.44791082  0.89690002  0.03118730     0.11100
H422        H  0.51602656  0.87208153  0.03597726     0.13100
C423        C  0.57448804  0.05899658  0.26707665     0.19200
C424        C  0.59374231  0.05996957  0.24158667    -0.18900
C425        C  0.58098523  0.05242098  0.20127898    -0.11200
C426        C  0.54859734  0.04311985  0.18565011     0.21400
C427        C  0.52952230  0.04140750  0.21133544    -0.20600
C428        C  0.54227510  0.04886844  0.25157377    -0.11400
C429        C  0.53347474  0.03599606  0.14286126    -0.15500
C430        C  0.54970282  0.02720016  0.11707955    -0.29400
C431        C  0.58871489  0.06852943  0.30952147    -0.03700
C432        C  0.57126802  0.08264382  0.33203401    -0.40200
H433        H  0.61863481  0.06745780  0.25274793     0.12600
H434        H  0.59652315  0.05488067  0.18260573     0.12200
H435        H  0.50459479  0.03404928  0.20024874     0.11600
H436        H  0.52679429  0.04617907  0.27032981     0.11900
H437        H  0.50771357  0.03694522  0.13238196     0.14600
H438        H  0.57529839  0.02413615  0.12692413     0.13400
H439        H  0.61414768  0.06516758  0.32156247     0.11100
H440        H  0.54606363  0.08766577  0.31880420     0.13100
C441        C  0.44554277  0.93510740  0.74253346     0.19200
C442        C  0.42866023  0.96159107  0.75924714    -0.18900
C443        C  0.44006069  0.97152380  0.79915427    -0.11200
C444        C  0.46885086  0.95534313  0.82296703     0.21400
C445        C  0.48595228  0.92946893  0.80594008    -0.20600
C446        C  0.47448082  0.91938046  0.76623593    -0.11400
C447        C  0.48277260  0.96584733  0.86504766    -0.15500
C448        C  0.46610613  0.98072703  0.88811130    -0.29400
C449        C  0.43336434  0.92584336  0.69994825    -0.03700
C450        C  0.43944494  0.89115938  0.68524718    -0.40200
H451        H  0.40659361  0.97461004  0.74136350     0.12600
H452        H  0.42663487  0.99251690  0.81079387     0.12200
H453        H  0.50842334  0.91710100  0.82341945     0.11600
H454        H  0.48875561  0.90005475  0.75402561     0.11900
H455        H  0.50792964  0.95983205  0.87796676     0.14600
H456        H  0.44069862  0.98534983  0.87670793     0.13400
H457        H  0.41875316  0.94789983  0.68011928     0.11100
H458        H  0.45249953  0.86809965  0.70513958     0.13100
C459        C  0.93659052  0.42526137  0.25647037     0.19200
C460        C  0.92521035  0.45678357  0.27413160    -0.18900
C461        C  0.93857631  0.46487168  0.31427834    -0.11200
C462        C  0.96341056  0.44106435  0.33784050     0.21400
C463        C  0.97418331  0.40898465  0.32027807    -0.20600
C464        C  0.96086494  0.40096057  0.28023489    -0.11400
C465        C  0.97957951  0.44905750  0.38026542    -0.15500
C466        C  0.96797203  0.47284163  0.40311819    -0.29400
C467        C  0.92271666  0.41841489  0.21337166    -0.03700
C468        C  0.93952263  0.40186091  0.19121102    -0.40200
H469        H  0.90641294  0.47582283  0.25656834     0.12600
H470        H  0.92979813  0.49029764  0.32621770     0.12200
H471        H  0.99306881  0.38995016  0.33765854     0.11600
H472        H  0.96953195  0.37549720  0.26815296     0.11900
H473        H  0.00199468  0.43387289  0.39354547     0.14600
H474        H  0.94508228  0.48720278  0.39139746     0.13400
H475        H  0.89894975  0.42950245  0.19968133     0.11100
H476        H  0.96418863  0.39403231  0.20509841     0.13100
C477        C  0.03113892  0.50770577  0.99180008     0.19200
C478        C  0.00041101  0.49264202  0.97558490    -0.18900
C479        C  0.98359260  0.47520845  0.99967879    -0.11200
C480        C  0.99729549  0.47200191  0.04084797     0.21400
C481        C  0.02804732  0.48695886  0.05705978    -0.20600
C482        C  0.04487353  0.50435629  0.03297210    -0.11400
C483        C  0.98053378  0.45406201  0.06819410    -0.15500
C484        C  0.95428830  0.43126194  0.05679862    -0.29400
C485        C  0.04757056  0.52665422  0.96455019    -0.03700
C486        C  0.07382495  0.54938529  0.97626660    -0.40200
H487        H  0.98911985  0.49481137  0.94403136     0.12600
H488        H  0.95977887  0.46499063  0.98579141     0.12200
H489        H  0.03927873  0.48494165  0.08863559     0.11600
H490        H  0.06863558  0.51467021  0.04694521     0.11900
H491        H  0.99140247  0.45879041  0.09942094     0.14600
H492        H  0.94418276  0.42443827  0.02588213     0.13400
H493        H  0.03621334  0.52334780  0.93319968     0.11100
H494        H  0.08448796  0.55483360  0.00737343     0.13100
C495        C  0.96399657  0.16099920  0.05846582     0.19200
C496        C  0.93466516  0.18055328  0.04409957    -0.18900
C497        C  0.92995487  0.21820631  0.05762471    -0.11200
C498        C  0.95452961  0.23694580  0.08618465     0.21400
C499        C  0.98353969  0.21691826  0.10136634    -0.20600
C500        C  0.98833138  0.17943688  0.08764574    -0.11400
C501        C  0.95038781  0.27642085  0.10219080    -0.15500
C502        C  0.92992597  0.30426768  0.08184909    -0.29400
C503        C  0.96784785  0.12081861  0.04362581    -0.03700
C504        C  0.99618159  0.10492377  0.04477942    -0.40200
H505        H  0.91532063  0.16666606  0.02223183     0.12600
H506        H  0.90690364  0.23210913  0.04626287     0.12200
H507        H  0.00263184  0.23037531  0.12394514     0.11600
H508        H  0.01086014  0.16478903  0.10063370     0.11900
H509        H  0.96603952  0.28340391  0.13113952     0.14600
H510        H  0.91630979  0.29903206  0.05149187     0.13400
H511        H  0.94641042  0.10403086  0.03050789     0.11100
H512        H  0.01778373  0.12185231  0.05601378     0.13100
C513        C  0.52734206  0.44961837  0.68346340     0.19200
C514        C  0.55985779  0.44529477  0.70289311    -0.18900
C515        C  0.57052838  0.43562631  0.74322805    -0.11200
C516        C  0.54881533  0.43042223  0.76539621     0.21400
C517        C  0.51627624  0.43485903  0.74597231    -0.20600
C518        C  0.50559750  0.44449702  0.70559375    -0.11400
C519        C  0.55872426  0.41988418  0.80842676    -0.15500
C520        C  0.58881496  0.42100935  0.83221579    -0.29400
C521        C  0.51751343  0.45975592  0.64038817    -0.03700
C522        C  0.48780196  0.45585576  0.61620055    -0.40200
H523        H  0.57717238  0.44901320  0.68665846     0.12600
H524        H  0.59574345  0.43184119  0.75643676     0.12200
H525        H  0.49896272  0.43110700  0.76220372     0.11600
H526        H  0.48038898  0.44834573  0.69224781     0.11900
H527        H  0.54012723  0.41149744  0.82163896     0.14600
H528        H  0.60808713  0.43014892  0.82072333     0.13400
H529        H  0.53609422  0.46929859  0.62763732     0.11100
H530        H  0.46888463  0.44481930  0.62744468     0.13100
C531        C  0.49848649  0.52362570  0.03270379     0.19200
C532        C  0.52951152  0.50887488  0.04807531    -0.18900
C533        C  0.54563155  0.49222741  0.02333338    -0.11200
C534        C  0.53081466  0.48939942  0.98247885     0.21400
C535        C  0.49978541  0.50416440  0.96710045    -0.20600
C536        C  0.48367464  0.52085527  0.99184648    -0.11400
C537        C  0.54671437  0.47172720  0.95475547    -0.15500
C538        C  0.57212867  0.44733720  0.96605094    -0.29400
C539        C  0.48247828  0.54086885  0.06051191    -0.03700
C540        C  0.45718253  0.56547110  0.04943472    -0.40200
H541        H  0.54151365  0.51062255  0.07941019     0.12600
H542        H  0.56975775  0.48224483  0.03643586     0.12200
H543        H  0.48775556  0.50233175  0.93577928     0.11600
H544        H  0.45953115  0.53081853  0.97879579     0.11900
H545        H  0.53571122  0.47751268  0.92353799     0.14600
H546        H  0.58202019  0.43919430  0.99694456     0.13400
H547        H  0.49314191  0.53417719  0.09160601     0.11100
H548        H  0.44757137  0.57419668  0.01864626     0.13100
C549        C  0.56274172  0.25292206  0.93502392     0.19200
C550        C  0.53342503  0.23424300  0.91907700    -0.18900
C551        C  0.52804535  0.19584429  0.93129668    -0.11200
C552        C  0.55210978  0.17505811  0.95953055     0.21400
C553        C  0.58154990  0.19353554  0.97522782    -0.20600
C554        C  0.58680663  0.23216214  0.96336276    -0.11400
C555        C  0.54780601  0.13340595  0.97147565    -0.15500
C556        C  0.51958043  0.11867725  0.97242349    -0.29400
C557        C  0.56793270  0.29287539  0.91949496    -0.03700
C558        C  0.58929172  0.31902425  0.94001016    -0.40200
H559        H  0.51465863  0.24932828  0.89680532     0.12600
H560        H  0.50538193  0.18211288  0.91770272     0.12200
H561        H  0.60059790  0.17793603  0.99661012     0.11600
H562        H  0.61001635  0.24507298  0.97550737     0.11900
H563        H  0.56879995  0.11466121  0.98109490     0.14600
H564        H  0.49884748  0.13787463  0.96569109     0.13400
H565        H  0.55269763  0.30146853  0.89049560     0.11100
H566        H  0.60261151  0.31221015  0.97036354     0.13100
C567        C  0.79352244  0.40861735  0.03836295     0.19200
C568        C  0.76711589  0.40656789  0.05310117    -0.18900
C569        C  0.73619166  0.40843305  0.02761145    -0.11200
C570        C  0.73083479  0.41235974  0.98642272     0.21400
C571        C  0.75728001  0.41541376  0.97180131    -0.20600
C572        C  0.78820851  0.41364699  0.99731592    -0.11400
C573        C  0.69839930  0.41406288  0.95766071    -0.15500
C574        C  0.67150770  0.40421719  0.96664879    -0.29400
C575        C  0.82595224  0.40640084  0.06694780    -0.03700
C576        C  0.85248462  0.39775053  0.05675558    -0.40200
H577        H  0.77040734  0.40336584  0.08459068     0.12600
H578        H  0.71683009  0.40722864  0.04067049     0.12200
H579        H  0.75402138  0.41912105  0.94036237     0.11600
H580        H  0.80769125  0.41682397  0.98460766     0.11900
H581        H  0.69701639  0.42282874  0.92755909     0.14600
H582        H  0.67266714  0.39433264  0.99632760     0.13400
H583        H  0.82752388  0.41064059  0.09778433     0.11100
H584        H  0.85076909  0.39142289  0.02625343     0.13100
loop_ 
_geom_bond_atom_site_label_1 
_geom_bond_atom_site_label_2 
_geom_bond_distance 
_geom_bond_site_symmetry_2 
_ccdc_geom_bond_type 
C1            C2   1.540       .  S
C1            C7   1.534       .  S
C1            C5   1.537       .  S
C1          C520   1.516       .  S
C2            H9   1.084       .  S
C2            C3   1.371       .  D
C3            C4   1.539       .  S
C3          C574   1.492       .  S
C4            C8   1.539       .  S
C4            C6   1.536       .  S
C4           H10   1.111       .  S
C5           H11   1.085       .  S
C5            C6   1.369       .  D
C6          C558   1.487       .  S
C7           H12   1.084       .  S
C7            C8   1.369       .  D
C8          C538   1.488       .  S
C13          C14   1.544       .  S
C13          C19   1.534       .  S
C13          C17   1.535       .  S
C13         C468   1.519       .  S
C14          H21   1.080       .  S
C14          C15   1.373       .  D
C15          C16   1.541       .  S
C15         C576   1.493       .  S
C16          C20   1.541       .  S
C16          C18   1.537       .  S
C16          H22   1.111       .  S
C17          H23   1.085       .  S
C17          C18   1.367       .  D
C18         C502   1.487       .  S
C19          H24   1.084       .  S
C19          C20   1.369       .  D
C20         C484   1.494       .  S
O25         Ni33   1.914       .  S
O25          C35   1.282       .  A
O26         Ni33   1.913   1_544  S
O26          C36   1.279       .  A
O27         Ni33   1.918   1_554  S
O27          C37   1.281       .  A
O28         Ni33   1.920   1_545  S
O28          C38   1.282       .  A
O29         Ni34   1.921   1_556  S
O29          C38   1.281       .  A
O30         Ni34   1.920   1_565  S
O30          C37   1.282       .  A
O31         Ni34   1.923       .  S
O31          C36   1.283       .  A
O32         Ni34   1.919   1_556  S
O32          C35   1.280   1_545  A
Ni33        Ni34   2.389   1_566  S
C35         C448   1.476       .  S
C36         C430   1.477       .  S
C37         C414   1.475       .  S
C38         C556   1.478       .  S
O39         Ni47   1.922   1_546  S
O39          C49   1.283   1_655  A
O40         Ni47   1.921       .  S
O40          C50   1.281   1_655  A
O41         Ni47   1.918   1_545  S
O41          C51   1.282       .  A
O42         Ni47   1.917   1_556  S
O42          C52   1.280   1_655  A
O43         Ni48   1.919       .  S
O43          C52   1.282   1_554  A
O44         Ni48   1.919   1_545  S
O44          C51   1.281   1_455  A
O45         Ni48   1.922       .  S
O45          C50   1.283       .  A
O46         Ni48   1.924   1_546  S
O46          C49   1.282       .  A
Ni47        Ni48   2.388   1_655  S
C49         C378   1.483   1_455  S
C50         C394   1.481       .  S
C51         C504   1.477       .  S
C52         C358   1.476       .  S
C53          C54   1.534       .  S
C53          C59   1.535       .  S
C53          C57   1.534       .  S
C53         C324   1.511       .  S
C54          H61   1.084       .  S
C54          C55   1.371       .  D
C55          C56   1.541       .  S
C55         C540   1.490       .  S
C56          C60   1.541       .  S
C56          C58   1.537       .  S
C56          H62   1.111       .  S
C57          H63   1.085       .  S
C57          C58   1.366       .  D
C58         C412   1.484       .  S
C59          H64   1.083       .  S
C59          C60   1.371       .  D
C60         C340   1.492       .  S
C65          C66   1.536       .  S
C65          C71   1.532       .  S
C65          C69   1.533       .  S
C65         C304   1.512       .  S
C66          H73   1.084       .  S
C66          C67   1.372       .  D
C67          C68   1.544       .  S
C67         C486   1.493       .  S
C68          C72   1.544       .  S
C68          C70   1.538       .  S
C68          H74   1.111       .  S
C69          H75   1.085       .  S
C69          C70   1.366       .  D
C70         C360   1.486       .  S
C71          H76   1.084       .  S
C71          C72   1.370       .  D
C72         C342   1.491       .  S
C77          C78   1.534       .  S
C77          C83   1.536       .  S
C77          C81   1.538       .  S
C77         C396   1.516       .  S
C78          H85   1.083       .  S
C78          C79   1.368       .  D
C79          C80   1.541       .  S
C79         C286   1.494       .  S
C80          C84   1.543       .  S
C80          C82   1.540       .  S
C80          H86   1.111       .  S
C81          H87   1.085       .  S
C81          C82   1.371       .  D
C82         C268   1.487       .  S
C83          H88   1.084       .  S
C83          C84   1.371       .  D
C84         C250   1.493       .  S
C89          C90   1.532       .  S
C89          C95   1.530       .  S
C89          C93   1.531       .  S
C89         C450   1.509       .  S
C90          H97   1.083       .  S
C90          C91   1.371       .  D
C91          C92   1.546       .  S
C91         C288   1.492       .  S
C92          C96   1.546       .  S
C92          C94   1.544       .  S
C92          H98   1.110       .  S
C93          H99   1.087       .  S
C93          C94   1.362       .  D
C94         C234   1.483       .  S
C95         H100   1.084       .  S
C95          C96   1.369       .  D
C96         C214   1.491       .  S
O101       Ni109   1.921       .  S
O101        C111   1.283       .  A
O102       Ni109   1.921       .  S
O102        C112   1.282       .  A
O103       Ni109   1.916       .  S
O103        C113   1.281       .  A
O104       Ni109   1.918       .  S
O104        C114   1.282       .  A
O105       Ni110   1.921       .  S
O105        C114   1.281       .  A
O106       Ni110   1.922       .  S
O106        C113   1.281       .  A
O107       Ni110   1.922       .  S
O107        C112   1.281       .  A
O108       Ni110   1.923       .  S
O108        C111   1.281       .  A
Ni109      Ni110   2.388       .  S
C111        C232   1.482       .  S
C112        C196   1.481       .  S
C113        C322   1.477       .  S
C114        C522   1.480       .  S
O115       Ni123   1.926       .  S
O115        C125   1.282       .  A
O116       Ni123   1.922       .  S
O116        C126   1.283   1_455  A
O117       Ni123   1.922       .  S
O117        C127   1.281       .  A
O118       Ni123   1.920       .  S
O118        C128   1.282   1_455  A
O119       Ni124   1.921       .  S
O119        C128   1.281       .  A
O120       Ni124   1.920   1_455  S
O120        C127   1.282       .  A
O121       Ni124   1.919       .  S
O121        C126   1.280       .  A
O122       Ni124   1.915   1_455  S
O122        C125   1.282       .  A
Ni123      Ni124   2.388   1_455  S
C125        C306   1.481       .  S
C126        C466   1.480       .  S
C127        C270   1.481       .  S
C128        C178   1.479       .  S
C129        C130   1.529       .  S
C129        C135   1.541       .  S
C129        C133   1.531       .  S
C129        C432   1.515       .  S
C130        H137   1.085       .  S
C130        C131   1.367       .  D
C131        C132   1.543       .  S
C131        C216   1.491       .  S
C132        C136   1.547       .  S
C132        C134   1.543       .  S
C132        H138   1.110       .  S
C133        H139   1.087       .  S
C133        C134   1.362       .  D
C134        C198   1.482       .  S
C135        H140   1.080       .  S
C135        C136   1.374       .  D
C136        C162   1.496       .  S
C141        C142   1.537       .  S
C141        C147   1.535       .  S
C141        C145   1.537       .  S
C141        C376   1.516       .  S
C142        H149   1.085       .  S
C142        C143   1.371       .  D
C143        C144   1.542       .  S
C143        C252   1.492       .  S
C144        C148   1.542       .  S
C144        C146   1.539       .  S
C144        H150   1.111       .  S
C145        H151   1.084       .  S
C145        C146   1.371       .  D
C146        C180   1.487       .  S
C147        H152   1.085       .  S
C147        C148   1.367       .  D
C148        C160   1.494       .  S
C153        C161   1.495       .  S
C153        C154   1.406       .  A
C153        C158   1.408       .  A
C154        C155   1.402       .  A
C154        H163   1.083       .  S
C155        C156   1.407       .  A
C155        H164   1.081       .  S
C156        C159   1.495       .  S
C156        C157   1.407       .  A
C157        C158   1.402       .  A
C157        H165   1.083       .  S
C158        H166   1.081       .  S
C159        H167   1.085       .  S
C159        C160   1.353       .  D
C160        H168   1.083       .  S
C161        H169   1.084       .  S
C161        C162   1.353       .  D
C162        H170   1.083       .  S
C171        C179   1.487       .  S
C171        C172   1.404       .  A
C171        C176   1.407       .  A
C172        C173   1.400       .  A
C172        H181   1.083       .  S
C173        C174   1.407       .  A
C173        H182   1.082       .  S
C174        C177   1.487       .  S
C174        C175   1.403       .  A
C175        C176   1.399       .  A
C175        H183   1.083       .  S
C176        H184   1.082       .  S
C177        H185   1.087   1_655  S
C177        C178   1.346       .  D
C178        H186   1.085       .  S
C179        H187   1.085       .  S
C179        C180   1.347       .  D
C180        H188   1.085       .  S
C189        C197   1.489       .  S
C189        C190   1.404       .  A
C189        C194   1.407       .  A
C190        C191   1.402       .  A
C190        H199   1.083       .  S
C191        C192   1.408       .  A
C191        H200   1.082       .  S
C192        C195   1.488       .  S
C192        C193   1.403       .  A
C193        C194   1.398       .  A
C193        H201   1.083       .  S
C194        H202   1.082       .  S
C195        H203   1.087       .  S
C195        C196   1.347       .  D
C196        H204   1.086       .  S
C197        H205   1.086       .  S
C197        C198   1.345       .  D
C198        H206   1.086       .  S
C207        C215   1.490       .  S
C207        C208   1.407   1_545  A
C207        C212   1.406       .  A
C208        C209   1.400       .  A
C208        H217   1.083   1_565  S
C209        C210   1.406       .  A
C209        H218   1.080       .  S
C210        C213   1.490       .  S
C210        C211   1.406       .  A
C211        C212   1.399   1_565  A
C211        H219   1.083       .  S
C212        H220   1.080       .  S
C213        H221   1.084       .  S
C213        C214   1.352       .  D
C214        H222   1.083       .  S
C215        H223   1.084       .  S
C215        C216   1.353       .  D
C216        H224   1.083       .  S
C225        C233   1.489       .  S
C225        C226   1.404       .  A
C225        C230   1.406       .  A
C226        C227   1.403       .  A
C226        H235   1.083       .  S
C227        C228   1.410       .  A
C227        H236   1.081       .  S
C228        C231   1.492       .  S
C228        C229   1.404       .  A
C229        C230   1.397       .  A
C229        H237   1.083       .  S
C230        H238   1.083       .  S
C231        H239   1.087       .  S
C231        C232   1.348       .  D
C232        H240   1.084       .  S
C233        H241   1.086       .  S
C233        C234   1.344       .  D
C234        H242   1.087       .  S
C243        C251   1.495       .  S
C243        C244   1.406   1_655  A
C243        C248   1.408       .  A
C244        C245   1.402   1_545  A
C244        H253   1.083       .  S
C245        C246   1.407       .  A
C245        H254   1.081       .  S
C246        C249   1.493       .  S
C246        C247   1.405   1_455  A
C247        C248   1.401   1_565  A
C247        H255   1.083       .  S
C248        H256   1.081       .  S
C249        H257   1.084       .  S
C249        C250   1.351       .  D
C250        H258   1.084       .  S
C251        H259   1.085       .  S
C251        C252   1.351       .  D
C252        H260   1.083       .  S
C261        C269   1.489       .  S
C261        C262   1.403       .  A
C261        C266   1.408       .  A
C262        C263   1.398       .  A
C262        H271   1.083       .  S
C263        C264   1.407       .  A
C263        H272   1.081       .  S
C264        C267   1.490       .  S
C264        C265   1.405       .  A
C265        C266   1.402       .  A
C265        H273   1.083       .  S
C266        H274   1.081       .  S
C267        H275   1.085       .  S
C267        C268   1.348       .  D
C268        H276   1.084       .  S
C269        H277   1.087       .  S
C269        C270   1.347       .  D
C270        H278   1.085       .  S
C279        C287   1.490       .  S
C279        C280   1.406       .  A
C279        C284   1.406       .  A
C280        C281   1.401       .  A
C280        H289   1.083       .  S
C281        C282   1.407       .  A
C281        H290   1.080       .  S
C282        C285   1.491       .  S
C282        C283   1.406       .  A
C283        C284   1.398       .  A
C283        H291   1.084       .  S
C284        H292   1.081       .  S
C285        H293   1.082       .  S
C285        C286   1.352       .  D
C286        H294   1.083       .  S
C287        H295   1.083       .  S
C287        C288   1.352       .  D
C288        H296   1.084       .  S
C297        C305   1.490       .  S
C297        C298   1.403       .  A
C297        C302   1.409       .  A
C298        C299   1.395       .  A
C298        H307   1.084       .  S
C299        C300   1.408       .  A
C299        H308   1.081       .  S
C300        C303   1.490       .  S
C300        C301   1.404       .  A
C301        C302   1.403       .  A
C301        H309   1.083       .  S
C302        H310   1.080       .  S
C303        H311   1.087       .  S
C303        C304   1.346       .  D
C304        H312   1.084       .  S
C305        H313   1.087       .  S
C305        C306   1.348       .  D
C306        H314   1.083       .  S
C315        C323   1.488       .  S
C315        C316   1.404       .  A
C315        C320   1.408       .  A
C316        C317   1.399       .  A
C316        H325   1.083       .  S
C317        C318   1.407       .  A
C317        H326   1.081       .  S
C318        C321   1.486       .  S
C318        C319   1.403       .  A
C319        C320   1.397       .  A
C319        H327   1.084       .  S
C320        H328   1.081       .  S
C321        H329   1.087       .  S
C321        C322   1.347       .  D
C322        H330   1.085       .  S
C323        H331   1.087       .  S
C323        C324   1.346       .  D
C324        H332   1.084       .  S
C333        C341   1.491       .  S
C333        C334   1.404       .  A
C333        C338   1.406   1_556  A
C334        C335   1.400       .  A
C334        H343   1.084       .  S
C335        C336   1.410   1_556  A
C335        H344   1.079       .  S
C336        C339   1.495       .  S
C336        C337   1.406       .  A
C337        C338   1.400       .  A
C337        H345   1.083       .  S
C338        H346   1.081       .  S
C339        H347   1.083       .  S
C339        C340   1.351       .  D
C340        H348   1.082       .  S
C341        H349   1.084       .  S
C341        C342   1.351       .  D
C342        H350   1.084   1_556  S
C351        C359   1.484       .  S
C351        C352   1.403       .  A
C351        C356   1.406       .  A
C352        C353   1.397       .  A
C352        H361   1.084       .  S
C353        C354   1.408       .  A
C353        H362   1.080       .  S
C354        C357   1.489       .  S
C354        C355   1.405       .  A
C355        C356   1.399       .  A
C355        H363   1.083   1_556  S
C356        H364   1.082       .  S
C357        H365   1.087       .  S
C357        C358   1.347       .  D
C358        H366   1.084   1_455  S
C359        H367   1.086       .  S
C359        C360   1.348       .  D
C360        H368   1.085       .  S
C369        C377   1.493       .  S
C369        C370   1.403       .  A
C369        C374   1.409       .  A
C370        C371   1.398       .  A
C370        H379   1.084       .  S
C371        C372   1.409       .  A
C371        H380   1.080       .  S
C372        C375   1.494       .  S
C372        C373   1.405       .  A
C373        C374   1.403       .  A
C373        H381   1.083   1_655  S
C374        H382   1.081   1_655  S
C375        H383   1.087       .  S
C375        C376   1.348       .  D
C376        H384   1.084       .  S
C377        H385   1.087       .  S
C377        C378   1.348       .  D
C378        H386   1.084   1_655  S
C387        C395   1.493       .  S
C387        C388   1.404       .  A
C387        C392   1.409       .  A
C388        C389   1.402       .  A
C388        H397   1.083       .  S
C389        C390   1.409       .  A
C389        H398   1.080   1_455  S
C390        C393   1.493       .  S
C390        C391   1.404       .  A
C391        C392   1.398       .  A
C391        H399   1.084       .  S
C392        H400   1.081       .  S
C393        H401   1.087       .  S
C393        C394   1.348       .  D
C394        H402   1.084   1_455  S
C395        H403   1.087       .  S
C395        C396   1.347       .  D
C396        H404   1.084       .  S
C405        C413   1.486       .  S
C405        C406   1.404       .  A
C405        C410   1.408       .  A
C406        C407   1.400       .  A
C406        H415   1.083       .  S
C407        C408   1.406       .  A
C407        H416   1.083       .  S
C408        C411   1.482       .  S
C408        C409   1.402       .  A
C409        C410   1.397       .  A
C409        H417   1.083       .  S
C410        H418   1.082       .  S
C411        H419   1.086       .  S
C411        C412   1.346       .  D
C412        H420   1.086       .  S
C413        H421   1.087       .  S
C413        C414   1.346       .  D
C414        H422   1.085       .  S
C423        C431   1.490       .  S
C423        C424   1.403       .  A
C423        C428   1.409       .  A
C424        C425   1.400       .  A
C424        H433   1.083       .  S
C425        C426   1.410       .  A
C425        H434   1.080       .  S
C426        C429   1.490       .  S
C426        C427   1.403       .  A
C427        C428   1.397       .  A
C427        H435   1.084       .  S
C428        H436   1.081       .  S
C429        H437   1.087       .  S
C429        C430   1.346       .  D
C430        H438   1.084       .  S
C431        H439   1.082       .  S
C431        C432   1.346       .  D
C432        H440   1.085       .  S
C441        C449   1.483       .  S
C441        C442   1.403       .  A
C441        C446   1.406       .  A
C442        C443   1.400       .  A
C442        H451   1.083       .  S
C443        C444   1.408       .  A
C443        H452   1.081       .  S
C444        C447   1.485       .  S
C444        C445   1.403       .  A
C445        C446   1.395       .  A
C445        H453   1.084       .  S
C446        H454   1.082       .  S
C447        H455   1.087       .  S
C447        C448   1.346       .  D
C448        H456   1.084       .  S
C449        H457   1.087       .  S
C449        C450   1.345       .  D
C450        H458   1.086       .  S
C459        C467   1.490       .  S
C459        C460   1.404       .  A
C459        C464   1.407       .  A
C460        C461   1.402       .  A
C460        H469   1.083       .  S
C461        C462   1.410       .  A
C461        H470   1.081       .  S
C462        C465   1.492       .  S
C462        C463   1.404       .  A
C463        C464   1.398       .  A
C463        H471   1.083       .  S
C464        H472   1.082       .  S
C465        H473   1.087   1_655  S
C465        C466   1.347       .  D
C466        H474   1.084       .  S
C467        H475   1.082       .  S
C467        C468   1.349       .  D
C468        H476   1.086       .  S
C477        C485   1.496       .  S
C477        C478   1.406       .  A
C477        C482   1.408   1_556  A
C478        C479   1.401   1_455  A
C478        H487   1.083   1_455  S
C479        C480   1.408   1_556  A
C479        H488   1.080       .  S
C480        C483   1.494       .  S
C480        C481   1.406   1_655  A
C481        C482   1.401       .  A
C481        H489   1.083       .  S
C482        H490   1.080       .  S
C483        H491   1.083       .  S
C483        C484   1.352       .  D
C484        H492   1.083       .  S
C485        H493   1.084       .  S
C485        C486   1.352       .  D
C486        H494   1.082   1_556  S
C495        C503   1.487       .  S
C495        C496   1.404       .  A
C495        C500   1.408       .  A
C496        C497   1.400       .  A
C496        H505   1.083       .  S
C497        C498   1.407       .  A
C497        H506   1.082       .  S
C498        C501   1.486       .  S
C498        C499   1.403       .  A
C499        C500   1.398       .  A
C499        H507   1.083   1_655  S
C500        H508   1.081   1_655  S
C501        H509   1.086       .  S
C501        C502   1.347       .  D
C502        H510   1.085       .  S
C503        H511   1.087       .  S
C503        C504   1.347       .  D
C504        H512   1.085   1_655  S
C513        C521   1.491       .  S
C513        C514   1.404       .  A
C513        C518   1.408       .  A
C514        C515   1.399       .  A
C514        H523   1.083       .  S
C515        C516   1.408       .  A
C515        H524   1.080       .  S
C516        C519   1.493       .  S
C516        C517   1.406       .  A
C517        C518   1.400       .  A
C517        H525   1.083       .  S
C518        H526   1.080       .  S
C519        H527   1.087       .  S
C519        C520   1.350       .  D
C520        H528   1.083       .  S
C521        H529   1.087       .  S
C521        C522   1.348       .  D
C522        H530   1.083       .  S
C531        C539   1.489       .  S
C531        C532   1.404       .  A
C531        C536   1.407   1_554  A
C532        C533   1.398       .  A
C532        H541   1.083       .  S
C533        C534   1.407   1_554  A
C533        H542   1.081       .  S
C534        C537   1.489       .  S
C534        C535   1.405       .  A
C535        C536   1.399       .  A
C535        H543   1.083       .  S
C536        H544   1.081       .  S
C537        H545   1.084       .  S
C537        C538   1.349       .  D
C538        H546   1.083       .  S
C539        H547   1.083       .  S
C539        C540   1.349       .  D
C540        H548   1.083       .  S
C549        C557   1.488       .  S
C549        C550   1.404       .  A
C549        C554   1.408       .  A
C550        C551   1.399       .  A
C550        H559   1.083       .  S
C551        C552   1.406       .  A
C551        H560   1.082       .  S
C552        C555   1.487       .  S
C552        C553   1.404       .  A
C553        C554   1.401       .  A
C553        H561   1.083       .  S
C554        H562   1.082       .  S
C555        H563   1.087       .  S
C555        C556   1.346       .  D
C556        H564   1.086       .  S
C557        H565   1.086       .  S
C557        C558   1.347       .  D
C558        H566   1.085       .  S
C567        C575   1.494       .  S
C567        C568   1.405       .  A
C567        C572   1.408   1_554  A
C568        C569   1.400       .  A
C568        H577   1.083       .  S
C569        C570   1.410   1_554  A
C569        H578   1.080       .  S
C570        C573   1.496       .  S
C570        C571   1.405       .  A
C571        C572   1.401       .  A
C571        H579   1.083       .  S
C572        H580   1.081       .  S
C573        H581   1.084       .  S
C573        C574   1.350       .  D
C574        H582   1.082       .  S
C575        H583   1.083       .  S
C575        C576   1.350       .  D
C576        H584   1.083       .  S
