geometry optimzed in LAMMPS
_audit_creation_date              2020-11-30 
_audit_creation_method            'lammps2cif' 
_symmetry_space_group_name_H-M    'P1' 
_symmetry_Int_Tables_number       1 
_symmetry_cell_setting            triclinic 
loop_ 
_symmetry_equiv_pos_as_xyz 
  x,y,z 
_cell_length_a                    27.13177701093885 
_cell_length_b                    27.164553167426536 
_cell_length_c                    62.27620271579654 
_cell_angle_alpha                 90.1444685656692 
_cell_angle_beta                  90.05378148120313 
_cell_angle_gamma                 90.21474749883488 
loop_ 
_atom_site_label 
_atom_site_type_symbol 
_atom_site_fract_x 
_atom_site_fract_y 
_atom_site_fract_z 
_atom_site_charge 
O1          O  0.93226404  0.04865538  0.47257997    -0.72250
O2          O  0.93577036  0.95178810  0.52092387    -0.73230
O3          O  0.93404234  0.05622351  0.51819092    -0.61850
O4          O  0.93478579  0.94476024  0.47550384    -0.70260
O5          O  0.01623800  0.95175609  0.47302319    -0.69810
O6          O  0.01580112  0.05306694  0.51977420    -0.61070
O7          O  0.01740875  0.94834192  0.51867123    -0.73580
O8          O  0.01373447  0.05635204  0.47414568    -0.72350
Cu9        Cu  0.93134519  0.00031649  0.49682463     1.04560
Cu10       Cu  0.01876735  0.00244818  0.49638386     1.04330
C11         C  0.97221705  0.06836280  0.46599365     0.93950
C12         C  0.97686742  0.93400222  0.52708199     0.93090
C13         C  0.97495412  0.07113739  0.52608570     0.85230
C14         C  0.97573470  0.93181529  0.46717373     0.91500
C15         C  0.95447929  0.00083175  0.74908453    -0.01790
C16         C  0.94949683  0.99155069  0.25099616    -0.01790
N17         N  0.97602407  0.79431838  0.34465393    -0.26600
N18         N  0.98609296  0.83821816  0.35270454    -0.34450
C19         C  0.98995519  0.87074364  0.33661116     0.01740
C20         C  0.98194552  0.84607415  0.31749725     0.07770
C21         C  0.97299200  0.79763041  0.32313788    -0.05330
H22         H  0.99588592  0.90987689  0.33871015     0.08440
H23         H  0.96369758  0.76744466  0.31250665     0.09640
Cu24       Cu  0.98920151  0.85224640  0.38525148     0.44170
Cu25       Cu  0.96574448  0.73358032  0.36397423     0.41990
Cu26       Cu  0.96298912  0.75260879  0.42237269     0.43880
N27         N  0.98255194  0.86130826  0.41802006    -0.33980
N28         N  0.97081873  0.82580105  0.43161327    -0.28240
C29         C  0.96629649  0.84531203  0.45142198    -0.04340
C30         C  0.97627834  0.89513016  0.45003967     0.07880
C31         C  0.98655485  0.90403061  0.42875992     0.01680
H32         H  0.95696237  0.82475068  0.46570997     0.09330
H33         H  0.99517995  0.93916006  0.42149747     0.08410
N34         N  0.96230489  0.68400458  0.40750174    -0.35430
N35         N  0.96345483  0.67786846  0.38641598    -0.27610
C36         C  0.96633111  0.62968436  0.38191275    -0.02850
C37         C  0.96693169  0.60414486  0.40099429     0.05760
C38         C  0.96418364  0.63949550  0.41696653     0.03850
H39         H  0.96926569  0.61443384  0.36590193     0.08960
H40         H  0.96539650  0.63347524  0.43411675     0.07790
O41         O  0.00570023  0.04576790  0.98091482    -0.72250
O42         O  0.89800438  0.04094356  0.02494951    -0.73230
O43         O  0.00194527  0.04625381  0.02674672    -0.61850
O44         O  0.90151029  0.04066491  0.97943014    -0.70260
O45         O  0.90352527  0.95891193  0.98012236    -0.69810
O46         O  0.00860451  0.96475907  0.02599021    -0.61070
O47         O  0.90385849  0.95936276  0.02588362    -0.73580
O48         O  0.00876586  0.96401341  0.98046368    -0.72350
Cu49       Cu  0.95169926  0.04623142  0.00300039     1.04560
Cu50       Cu  0.95628280  0.95882427  0.00310773     1.04330
C51         C  0.02370820  0.00572294  0.97361108     0.93950
C52         C  0.88463823  0.99941614  0.03254656     0.93090
C53         C  0.02107224  0.00655155  0.03377724     0.85230
C54         C  0.88650997  0.99901649  0.97244437     0.91500
N55         N  0.75111989  0.00586552  0.15656330    -0.26600
N56         N  0.79536864  0.00342252  0.14785202    -0.34450
C57         C  0.82903587  0.99854576  0.16340544     0.01740
C58         C  0.80502046  0.99788440  0.18297015     0.07770
C59         C  0.75546390  0.00275829  0.17809696    -0.05330
H60         H  0.86801751  0.99360868  0.16058401     0.08440
H61         H  0.72485634  0.00163560  0.18920288     0.09640
Cu62       Cu  0.80840087  0.00201204  0.11525518     0.44170
Cu63       Cu  0.68850751  0.00788565  0.13768580     0.41990
Cu64       Cu  0.70663706  0.00458566  0.07854267     0.43880
N65         N  0.81670734  0.99965456  0.08238002    -0.33980
N66         N  0.77963215  0.00139751  0.06861938    -0.28240
C67         C  0.79785307  0.00077663  0.04849895    -0.04340
C68         C  0.84862924  0.99801222  0.04991513     0.07880
C69         C  0.85936285  0.99752209  0.07152549     0.01680
H70         H  0.77590025  0.00260047  0.03402226     0.09330
H71         H  0.89552184  0.99671588  0.07884835     0.08410
N72         N  0.63867683  0.00447421  0.09392338    -0.35430
N73         N  0.63276371  0.00523366  0.11503212    -0.27610
C74         C  0.58450968  0.00273318  0.11956654    -0.02850
C75         C  0.55872926  0.00039420  0.10050011     0.05760
C76         C  0.59403302  0.00174646  0.08451577     0.03850
H77         H  0.56930166  0.00225248  0.13561799     0.08960
H78         H  0.58783405  0.99984426  0.06737549     0.07790
N79         N  0.96151652  0.20176127  0.34417671    -0.26600
N80         N  0.93756102  0.16532487  0.35359246    -0.34450
C81         C  0.92867088  0.12997938  0.33909977     0.01740
C82         C  0.94970271  0.14337907  0.31967974     0.07770
C83         C  0.96966068  0.18975668  0.32340302    -0.05330
H84         H  0.91201188  0.09485244  0.34296521     0.08440
H85         H  0.99129429  0.21157337  0.31235298     0.09640
Cu86       Cu  0.93155778  0.15617939  0.38659247     0.44170
Cu87       Cu  0.98346500  0.26336551  0.36146699     0.41990
Cu88       Cu  0.98882689  0.24507357  0.42004114     0.43880
N89         N  0.95146374  0.14175522  0.41818212    -0.33980
N90         N  0.97635214  0.17359678  0.43008868    -0.28240
C91         C  0.98868706  0.15217783  0.44880922    -0.04340
C92         C  0.96994663  0.10479363  0.44870398     0.07880
C93         C  0.94633780  0.09944952  0.42914925     0.01680
H94         H  0.00855346  0.17016091  0.46170905     0.09330
H95         H  0.92787681  0.06684260  0.42313011     0.08410
N96         N  0.98807591  0.31308819  0.40512665    -0.35430
N97         N  0.98741603  0.31952346  0.38405854    -0.27610
C98         C  0.98529907  0.36794721  0.37988444    -0.02850
C99         C  0.98418160  0.39300119  0.39918704     0.05760
C100        C  0.98593974  0.35727979  0.41488233     0.03850
H101        H  0.98348874  0.38371589  0.36397266     0.08960
H102        H  0.98540493  0.36290878  0.43207789     0.07790
N103        N  0.15532383  0.01855124  0.15771138    -0.26600
N104        N  0.11403336  0.03349188  0.14859959    -0.34450
C105        C  0.07938101  0.03836936  0.16373506     0.01740
C106        C  0.09911587  0.02498586  0.18338677     0.07770
C107        C  0.14764697  0.01275408  0.17900455    -0.05330
H108        H  0.04111110  0.04642188  0.16039354     0.08440
H109        H  0.17409692  0.99730456  0.19007122     0.09640
Cu110      Cu  0.10171290  0.03541773  0.11568145     0.44170
Cu111      Cu  0.21723672  0.00303560  0.13944949     0.41990
Cu112      Cu  0.19790753  0.99720821  0.08054670     0.43880
N113        N  0.09064150  0.02193839  0.08318245    -0.33980
N114        N  0.12561714  0.00525072  0.07035357    -0.28240
C115        C  0.10628154  0.99659627  0.05076404    -0.04340
C116        C  0.05696643  0.00914144  0.05133671     0.07880
C117        C  0.04827099  0.02519034  0.07204820     0.01680
H118        H  0.12672804  0.98299952  0.03709560     0.09330
H119        H  0.01349300  0.03729241  0.07866632     0.08410
N120        N  0.26613417  0.99619059  0.09560695    -0.35430
N121        N  0.27272053  0.99735743  0.11667884    -0.27610
C122        C  0.32123752  0.99653908  0.12089925    -0.02850
C123        C  0.34636480  0.99500425  0.10164617     0.05760
C124        C  0.31043719  0.99493259  0.08591159     0.03850
H125        H  0.33711021  0.99763849  0.13683476     0.08960
H126        H  0.31602158  0.99386653  0.06872470     0.07790
N127        N  0.75861233  0.00834798  0.84750127    -0.26600
N128        N  0.80213299  0.01319742  0.85678256    -0.34450
C129        C  0.83740104  0.01209192  0.84174083     0.01740
C130        C  0.81520632  0.00597812  0.82194105     0.07770
C131        C  0.76505311  0.00392736  0.82611185    -0.05330
H132        H  0.87652952  0.01374386  0.84504421     0.08440
H133        H  0.73575124  0.99780168  0.81462188     0.09640
Cu134      Cu  0.81244967  0.01493003  0.88955256     0.44170
Cu135      Cu  0.69442158  0.00451456  0.86548547     0.41990
Cu136      Cu  0.70945142  0.99323877  0.92459349     0.43880
N137        N  0.81960503  0.00577796  0.92224430    -0.33980
N138        N  0.78248116  0.99630195  0.93536282    -0.28240
C139        C  0.80047985  0.99110094  0.95544571    -0.04340
C140        C  0.85114164  0.99767056  0.95466057     0.07880
C141        C  0.86186346  0.00720537  0.93346606     0.01680
H142        H  0.77833764  0.98417108  0.96956073     0.09330
H143        H  0.89777703  0.01477819  0.92666656     0.08410
N144        N  0.64175065  0.99576079  0.90849337    -0.35430
N145        N  0.63701195  0.00028968  0.88741941    -0.27610
C146        C  0.58889780  0.00127775  0.88236963    -0.02850
C147        C  0.56167199  0.99691377  0.90102472     0.05760
C148        C  0.59641140  0.99362235  0.91731361     0.03850
H149        H  0.57473538  0.00496662  0.86621573     0.08960
H150        H  0.58928130  0.98949855  0.93429959     0.07790
N151        N  0.96629726  0.80431471  0.65093424    -0.26600
N152        N  0.95578788  0.84675977  0.64174352    -0.34450
C153        C  0.95175909  0.88165563  0.65688094     0.01740
C154        C  0.96005683  0.86024367  0.67661775     0.07770
C155        C  0.96906755  0.81103465  0.67236126    -0.05330
H156        H  0.94534292  0.92024210  0.65369405     0.08440
H157        H  0.97876431  0.78283301  0.68381893     0.09640
Cu158      Cu  0.95350929  0.85704319  0.60900780     0.44170
Cu159      Cu  0.97851554  0.74135354  0.63288494     0.41990
Cu160      Cu  0.97993593  0.75585693  0.57369896     0.43880
N161        N  0.96527267  0.86537796  0.57654727    -0.33980
N162        N  0.97720796  0.82903279  0.56340411    -0.28240
C163        C  0.98485606  0.84786652  0.54363980    -0.04340
C164        C  0.97705824  0.89822853  0.54463987     0.07880
C165        C  0.96434041  0.90790055  0.56562490     0.01680
H166        H  0.99402549  0.82643337  0.52954664     0.09330
H167        H  0.95520575  0.94331949  0.57250675     0.08410
N168        N  0.97838930  0.68833442  0.58979396    -0.35430
N169        N  0.97982668  0.68383793  0.61094835    -0.27610
C170        C  0.97733850  0.63594837  0.61609895    -0.02850
C171        C  0.97321604  0.60853957  0.59742832     0.05760
C172        C  0.97423631  0.64306215  0.58102095     0.03850
H173        H  0.97727356  0.62218707  0.63237967     0.08960
H174        H  0.97070544  0.63596381  0.56399358     0.07790
N175        N  0.96454603  0.19653103  0.65046167    -0.26600
N176        N  0.97352500  0.15383417  0.64111248    -0.34450
C177        C  0.97029823  0.11776132  0.65568943     0.01740
C178        C  0.95870293  0.13861860  0.67525496     0.07770
C179        C  0.95551595  0.18877536  0.67146541    -0.05330
H180        H  0.97548450  0.07906481  0.65225016     0.08440
H181        H  0.94656980  0.21723904  0.68297738     0.09640
Cu182      Cu  0.98549496  0.14576947  0.60872186     0.44170
Cu183      Cu  0.96312429  0.26145392  0.63300942     0.41990
Cu184      Cu  0.95816125  0.24725716  0.57381793     0.43880
N185        N  0.98112825  0.13922995  0.57589815    -0.33980
N186        N  0.96804586  0.17526293  0.56287223    -0.28240
C187        C  0.96369362  0.15689310  0.54280552    -0.04340
C188        C  0.97521710  0.10728633  0.54350301     0.07880
C189        C  0.98621091  0.09743328  0.56462113     0.01680
H190        H  0.95320379  0.17799050  0.52883466     0.09330
H191        H  0.99555605  0.06209645  0.57145367     0.08410
N192        N  0.95811692  0.31457730  0.59010303    -0.35430
N193        N  0.96123102  0.31917667  0.61123244    -0.27610
C194        C  0.96257975  0.36721567  0.61635274    -0.02850
C195        C  0.95973132  0.39454634  0.59767191     0.05760
C196        C  0.95698291  0.35985621  0.58131833     0.03850
H197        H  0.96576078  0.38123292  0.63256805     0.08960
H198        H  0.95428614  0.36693791  0.56427789     0.07790
N199        N  0.14922572  0.01490593  0.84856713    -0.26600
N200        N  0.10597407  0.01628736  0.85821304    -0.34450
C201        C  0.07009151  0.01611788  0.84345093     0.01740
C202        C  0.09152609  0.01497206  0.82337141     0.07770
C203        C  0.14195517  0.01405185  0.82713821    -0.05330
H204        H  0.03110752  0.01674311  0.84708200     0.08440
H205        H  0.17100759  0.01315480  0.81526830     0.09640
Cu206      Cu  0.09699411  0.01770259  0.89089731     0.44170
Cu207      Cu  0.21412403  0.01342032  0.86624200     0.41990
Cu208      Cu  0.20060970  0.00236203  0.92573926     0.43880
N209        N  0.09060976  0.01304288  0.92364014    -0.33980
N210        N  0.12802413  0.00570441  0.93684189    -0.28240
C211        C  0.11032150  0.00192872  0.95702199    -0.04340
C212        C  0.05961976  0.00770991  0.95615974     0.07880
C213        C  0.04846797  0.01466573  0.93484617     0.01680
H214        H  0.13255599  0.99565107  0.97116767     0.09330
H215        H  0.01227442  0.01963881  0.92789884     0.08410
N216        N  0.26761534  0.00415800  0.90917401    -0.35430
N217        N  0.27189481  0.00880950  0.88808057    -0.27610
C218        C  0.31988911  0.00843375  0.88282430    -0.02850
C219        C  0.34743970  0.00297584  0.90134845     0.05760
C220        C  0.31307772  0.00055689  0.91777876     0.03850
H221        H  0.33373242  0.01142157  0.86659445     0.08960
H222        H  0.32050887  0.99561201  0.93470031     0.07790
C223        C  0.96657162  0.55399366  0.59586868    -0.04640
C224        C  0.93284712  0.52962302  0.60959258    -0.01760
C225        C  0.92972770  0.47777812  0.60969715     0.03230
C226        C  0.96004249  0.44939527  0.59599999    -0.04640
C227        C  0.99187478  0.47376182  0.58146028    -0.01750
C228        C  0.99510780  0.52575153  0.58139377     0.03220
C229        C  0.90013582  0.55775594  0.62334749     0.37870
C230        C  0.02329921  0.44551557  0.56722127     0.37870
C231        C  0.02964200  0.54982160  0.56703644     0.36290
C232        C  0.89427614  0.45381111  0.62369907     0.36290
N233        N  0.05715360  0.56884408  0.55550820    -0.38530
N234        N  0.86607081  0.43485029  0.63492669    -0.38530
N235        N  0.04838678  0.42317139  0.55579809    -0.37970
N236        N  0.87404406  0.57998296  0.63437935    -0.37980
C237        C  0.50683041  0.99559804  0.90268125    -0.04640
C238        C  0.48166298  0.02761030  0.91684150    -0.01760
C239        C  0.42955511  0.02913107  0.91689348     0.03230
C240        C  0.40213069  0.99869361  0.90277358    -0.04640
C241        C  0.42731905  0.96524118  0.88928549    -0.01750
C242        C  0.47926701  0.96369852  0.88924269     0.03220
C243        C  0.50923563  0.06089101  0.93063345     0.37870
C244        C  0.39982961  0.93140098  0.87568794     0.37870
C245        C  0.50424238  0.92830119  0.87559638     0.36290
C246        C  0.40439587  0.06387599  0.93076448     0.36290
N247        N  0.52403733  0.90007350  0.86468249    -0.38530
N248        N  0.38442982  0.09163093  0.94184934    -0.38530
N249        N  0.37798228  0.90443718  0.86481838    -0.37970
N250        N  0.53112671  0.08749141  0.94165537    -0.37980
C251        C  0.50459004  0.99596823  0.09822931    -0.04640
C252        C  0.47746094  0.03294361  0.08763766    -0.01760
C253        C  0.42546206  0.03176520  0.08798880     0.03230
C254        C  0.40054360  0.99355077  0.09891330    -0.04640
C255        C  0.42775590  0.95519912  0.10845744    -0.01750
C256        C  0.47959824  0.95638483  0.10811103     0.03220
C257        C  0.50296179  0.07365210  0.07741755     0.37870
C258        C  0.40235200  0.91419757  0.11851990     0.37870
C259        C  0.50725668  0.91655243  0.11780644     0.36290
C260        C  0.39778212  0.07136073  0.07815530     0.36290
N261        N  0.52929331  0.88475346  0.12551241    -0.38530
N262        N  0.37580432  0.10305151  0.07033153    -0.38530
N263        N  0.38203746  0.88150531  0.12651257    -0.37970
N264        N  0.52334852  0.10613703  0.06929692    -0.37980
C265        C  0.97366925  0.55043629  0.40328123    -0.04640
C266        C  0.01698705  0.52823527  0.39535773    -0.01760
C267        C  0.02095080  0.47663421  0.39472386     0.03230
C268        C  0.98172455  0.44696179  0.40206813    -0.04640
C269        C  0.93936402  0.46909589  0.41098823    -0.01750
C270        C  0.93537714  0.52086010  0.41161226     0.03220
C271        C  0.05763397  0.55853648  0.38789064     0.37870
C272        C  0.89878689  0.43871324  0.41843062     0.37870
C273        C  0.89085056  0.54363379  0.41975971     0.36290
C274        C  0.06551294  0.45395885  0.38653223     0.36290
N275        N  0.85533314  0.56189804  0.42621072    -0.38530
N276        N  0.10099678  0.43572905  0.38003253    -0.38530
N277        N  0.86629074  0.41456263  0.42431387    -0.37970
N278        N  0.09009505  0.58267299  0.38196508    -0.37980
C279        C  0.96019982  0.94016860  0.26282564    -0.04640
C280        C  0.00892528  0.92586839  0.26918934    -0.01760
C281        C  0.01617237  0.89592278  0.28737331     0.03230
C282        C  0.97669840  0.86967903  0.29622248    -0.04640
C283        C  0.93072335  0.87110285  0.28603696    -0.01750
C284        C  0.92086581  0.90846890  0.27083403     0.03220
C285        C  0.05160838  0.93233584  0.25563902     0.37870
C286        C  0.89135284  0.83883837  0.29345613     0.37870
C287        C  0.86875224  0.91690122  0.26679702     0.36290
C288        C  0.06503679  0.89055509  0.29661614     0.36290
N289        N  0.82683736  0.92220271  0.26419709    -0.38530
N290        N  0.10380319  0.88627186  0.30413225    -0.38530
N291        N  0.85986802  0.81325923  0.29923824    -0.37970
N292        N  0.08717923  0.93445411  0.24541962    -0.37980
C293        C  0.90011860  0.98504877  0.23747129    -0.04640
C294        C  0.89579302  0.94528264  0.22211641    -0.01760
C295        C  0.85991308  0.94675739  0.20579750     0.03230
C296        C  0.82881335  0.98772455  0.20395186    -0.04640
C297        C  0.82566194  0.02111497  0.22119254    -0.01750
C298        C  0.85852588  0.01727607  0.23876634     0.03220
C299        C  0.93042658  0.90449282  0.22161899     0.37870
C300        C  0.79019712  0.06087703  0.22045232     0.37870
C301        C  0.84507827  0.04221643  0.25849136     0.36290
C302        C  0.85694085  0.90735206  0.19000780     0.36290
N303        N  0.83313072  0.06186375  0.27415384    -0.38530
N304        N  0.85458436  0.87603179  0.17741383    -0.38530
N305        N  0.76210282  0.09279748  0.21985242    -0.37970
N306        N  0.95771033  0.87185776  0.22100859    -0.37980
C307        C  0.94661240  0.03398742  0.26869227    -0.04640
C308        C  0.94531579  0.08560272  0.26329470    -0.01760
C309        C  0.94659641  0.12240277  0.27969472     0.03230
C310        C  0.95689587  0.10922686  0.30111318    -0.04640
C311        C  0.96669253  0.05976076  0.30552490    -0.01750
C312        C  0.95071693  0.02365099  0.29118598     0.03220
C313        C  0.93988203  0.10205859  0.24133820     0.37870
C314        C  0.98920996  0.04493310  0.32568505     0.37870
C315        C  0.92212586  0.98592400  0.30175939     0.36290
C316        C  0.93698795  0.17347610  0.27452264     0.36290
N317        N  0.89857359  0.95902366  0.31190158    -0.38530
N318        N  0.92921150  0.21419610  0.27032676    -0.38530
N319        N  0.00738692  0.03307018  0.34166666    -0.37970
N320        N  0.93540802  0.11790767  0.22423017    -0.37980
C321        C  0.06894551  0.01293238  0.20259994    -0.04640
C322        C  0.07468817  0.03705839  0.22259598    -0.01760
C323        C  0.03843715  0.03027239  0.23908399     0.03230
C324        C  0.99210266  0.00608448  0.23412903    -0.04640
C325        C  0.98583898  0.99596192  0.21186271    -0.01750
C326        C  0.02654081  0.98448891  0.19951537     0.03220
C327        C  0.11753171  0.06796552  0.22618736     0.37870
C328        C  0.94951401  0.02315858  0.19972323     0.37870
C329        C  0.02044869  0.95216753  0.18114065     0.36290
C330        C  0.05105079  0.04676153  0.26053161     0.36290
N331        N  0.01568421  0.92580174  0.16665540    -0.38530
N332        N  0.06285659  0.06035939  0.27740165    -0.38530
N333        N  0.92240930  0.04572478  0.18935008    -0.37970
N334        N  0.15166642  0.09286697  0.22894335    -0.37980
C335        C  0.90796887  0.99661189  0.76496986    -0.04640
C336        C  0.90967660  0.96032944  0.78197912    -0.01760
C337        C  0.87730240  0.96199106  0.79965640     0.03230
C338        C  0.84153888  0.99871204  0.80124914    -0.04640
C339        C  0.83462506  0.03115787  0.78408969    -0.01750
C340        C  0.86767045  0.03157942  0.76638899     0.03220
C341        C  0.94344091  0.91893118  0.78166877     0.37870
C342        C  0.79510246  0.06711781  0.78551884     0.37870
C343        C  0.86103608  0.07278900  0.75192343     0.36290
C344        C  0.88031367  0.92480542  0.81641577     0.36290
N345        N  0.85383892  0.10702200  0.74132890    -0.38530
N346        N  0.88264865  0.89522378  0.82971699    -0.38530
N347        N  0.76367365  0.09570270  0.78661309    -0.37970
N348        N  0.96740910  0.88382416  0.78247522    -0.37980
C349        C  0.99838484  0.00728915  0.76619951    -0.04640
C350        C  0.03818536  0.97257423  0.76969579    -0.01760
C351        C  0.07062006  0.97752159  0.78750700     0.03230
C352        C  0.06421382  0.01520343  0.80264932    -0.04640
C353        C  0.02777310  0.05065039  0.79928778    -0.01750
C354        C  0.99492066  0.04674708  0.78182010     0.03220
C355        C  0.04506168  0.92791893  0.75722183     0.37870
C356        C  0.02496026  0.09276257  0.81376674     0.37870
C357        C  0.95966545  0.08665944  0.77982107     0.36290
C358        C  0.10901979  0.94120409  0.79118861     0.36030
N359        N  0.93416734  0.12069472  0.77920414    -0.38530
N360        N  0.13944672  0.91221055  0.79408350    -0.38530
N361        N  0.02282744  0.12633027  0.82520590    -0.37970
N362        N  0.05216478  0.89132913  0.74815752    -0.37980
C363        C  0.96066662  0.95449675  0.73322570    -0.04640
C364        C  0.99942041  0.95623717  0.71725281    -0.01760
C365        C  0.00017373  0.92379518  0.69955975     0.03230
C366        C  0.96428388  0.88716259  0.69728627    -0.04640
C367        C  0.92931321  0.88030295  0.71349076    -0.01750
C368        C  0.92552626  0.91428083  0.73077113     0.03220
C369        C  0.04071504  0.99029171  0.71862644     0.37870
C370        C  0.89433662  0.83979936  0.71135746     0.37870
C371        C  0.88095401  0.90886860  0.74343044     0.36290
C372        C  0.03875239  0.92785703  0.68340712     0.36290
N373        N  0.84434188  0.90286928  0.75263844    -0.38530
N374        N  0.06935679  0.93102318  0.67054648    -0.38530
N375        N  0.86658435  0.80755110  0.70969589    -0.37970
N376        N  0.07588099  0.01453796  0.71868955    -0.37980
C377        C  0.95122344  0.04527076  0.73207943    -0.04640
C378        C  0.98642831  0.08560550  0.73021746    -0.01760
C379        C  0.98416034  0.11936928  0.71291032     0.03230
C380        C  0.95201018  0.11134170  0.69568440    -0.04640
C381        C  0.91727299  0.07330134  0.69682629    -0.01750
C382        C  0.91567485  0.04163064  0.71474755     0.03220
C383        C  0.02991809  0.09152664  0.74358440     0.37870
C384        C  0.88194023  0.06730338  0.67939023     0.37870
C385        C  0.87502913  0.00663567  0.71496643     0.36290
C386        C  0.01827956  0.16083074  0.71187858     0.36290
N387        N  0.84065217  0.98135373  0.71404471    -0.38530
N388        N  0.04533905  0.19381663  0.71112030    -0.38530
N389        N  0.85386452  0.06251664  0.66553136    -0.37970
N390        N  0.06581888  0.09798384  0.75329824    -0.37980
loop_ 
_geom_bond_atom_site_label_1 
_geom_bond_atom_site_label_2 
_geom_bond_distance 
_geom_bond_site_symmetry_2 
_ccdc_geom_bond_type 
O1           Cu9   2.004       .  S
O1           C11   1.276       .  A
O2           Cu9   2.004   1_565  S
O2           C12   1.276       .  A
O3           Cu9   2.018       .  S
O3           C13   1.278       .  A
O4           Cu9   2.010   1_565  S
O4           C14   1.277       .  A
O5          Cu10   2.002   1_565  S
O5           C14   1.276   1_455  A
O6          Cu10   2.003       .  S
O6           C13   1.276   1_455  A
O7          Cu10   2.024   1_565  S
O7           C12   1.279   1_455  A
O8          Cu10   2.023       .  S
O8           C11   1.279   1_455  A
Cu9         Cu10   2.373   1_655  S
C11          C92   1.466       .  S
C12         C164   1.465       .  S
C13         C188   1.461       .  S
C14          C30   1.458       .  S
C15         C335   1.608   1_545  S
C15         C349   1.607       .  S
C15         C363   1.607   1_545  S
C15         C377   1.610       .  S
C16         C279   1.607       .  S
C16         C293   1.591       .  S
C16         C307   1.595   1_565  S
C16         C324   1.611   1_565  S
N17          N18   1.320       .  A
N17          C21   1.346       .  A
N17         Cu25   2.063       .  S
N18          C19   1.342       .  A
N18         Cu24   2.063       .  S
C19          C20   1.381       .  A
C19          H22   1.082       .  S
C20         C282   1.480       .  S
C20          C21   1.384       .  A
C21          H23   1.082       .  S
Cu24         N27   2.063       .  S
Cu25         N35   2.063       .  S
Cu26         N28   2.079       .  S
Cu26         N34   2.079       .  S
N27          N28   1.323       .  A
N27          C31   1.342       .  A
N28          C29   1.347       .  A
C29          C30   1.382       .  A
C29          H32   1.082       .  S
C30          C31   1.376       .  A
C31          H33   1.082       .  S
N34          N35   1.324       .  A
N34          C38   1.348       .  A
N35          C36   1.340       .  A
C36          C37   1.378       .  A
C36          H39   1.082       .  S
C37         C265   1.478       .  S
C37          C38   1.383       .  A
C38          H40   1.081       .  S
O41         Cu49   2.011   1_456  S
O41          C51   1.277       .  A
O42         Cu49   2.004       .  S
O42          C52   1.276   1_545  A
O43         Cu49   2.010   1_455  S
O43          C53   1.277       .  A
O44         Cu49   2.006   1_556  S
O44          C54   1.276   1_545  A
O45         Cu50   2.023   1_556  S
O45          C54   1.279       .  A
O46         Cu50   2.016   1_455  S
O46          C53   1.278   1_565  A
O47         Cu50   2.010       .  S
O47          C52   1.277       .  A
O48         Cu50   2.010   1_456  S
O48          C51   1.277   1_565  A
Cu49        Cu50   2.378   1_545  S
C51         C212   1.461       .  S
C52          C68   1.459       .  S
C53         C116   1.465       .  S
C54         C140   1.465       .  S
N55          N56   1.320       .  A
N55          C59   1.349       .  A
N55         Cu63   2.066       .  S
N56          C57   1.338   1_545  A
N56         Cu62   2.061       .  S
C57          C58   1.382       .  A
C57          H60   1.081       .  S
C58         C296   1.484       .  S
C58          C59   1.385   1_565  A
C59          H61   1.082       .  S
Cu62         N65   2.061   1_545  S
Cu63         N73   2.068       .  S
Cu64         N66   2.077       .  S
Cu64         N72   2.079       .  S
N65          N66   1.322   1_565  A
N65          C69   1.342       .  A
N66          C67   1.348       .  A
C67          C68   1.383   1_545  A
C67          H70   1.081       .  S
C68          C69   1.377       .  A
C69          H71   1.082       .  S
N72          N73   1.325       .  A
N72          C76   1.347       .  A
N73          C74   1.341       .  A
C74          C75   1.379       .  A
C74          H77   1.082       .  S
C75         C251   1.480   1_545  S
C75          C76   1.383       .  A
C76          H78   1.082   1_545  S
N79          N80   1.321       .  A
N79          C83   1.352       .  A
N79         Cu87   2.073       .  S
N80          C81   1.337       .  A
N80         Cu86   2.077       .  S
C81          C82   1.387       .  A
C81          H84   1.082       .  S
C82         C310   1.494       .  S
C82          C83   1.388       .  A
C83          H85   1.081       .  S
Cu86         N89   2.078       .  S
Cu87         N97   2.075       .  S
Cu88         N90   2.068       .  S
Cu88         N96   2.070       .  S
N89          N90   1.321       .  A
N89          C93   1.345       .  A
N90          C91   1.347       .  A
C91          C92   1.382       .  A
C91          H94   1.082   1_655  S
C92          C93   1.383       .  A
C93          H95   1.082       .  S
N96          N97   1.324       .  A
N96         C100   1.346       .  A
N97          C98   1.343       .  A
C98          C99   1.380       .  A
C98         H101   1.082       .  S
C99         C268   1.478       .  S
C99         C100   1.380       .  A
C100        H102   1.081       .  S
N103        N104   1.321       .  A
N103        C107   1.352       .  A
N103       Cu111   2.073       .  S
N104        C105   1.339       .  A
N104       Cu110   2.078       .  S
C105        C106   1.385       .  A
C105        H108   1.082       .  S
C106        C321   1.487       .  S
C106        C107   1.386       .  A
C107        H109   1.081   1_545  S
Cu110       N113   2.077       .  S
Cu111       N121   2.075   1_545  S
Cu112       N114   2.073   1_565  S
Cu112       N120   2.075       .  S
N113        N114   1.322       .  A
N113        C117   1.345       .  A
N114        C115   1.347   1_545  A
C115        C116   1.382   1_565  A
C115        H118   1.081       .  S
C116        C117   1.381       .  A
C117        H119   1.082       .  S
N120        N121   1.325       .  A
N120        C124   1.346       .  A
N121        C122   1.342       .  A
C122        C123   1.380       .  A
C122        H125   1.082       .  S
C123        C254   1.481       .  S
C123        C124   1.382       .  A
C124        H126   1.081       .  S
N127        N128   1.320       .  A
N127        C131   1.349       .  A
N127       Cu135   2.074       .  S
N128        C129   1.340       .  A
N128       Cu134   2.060       .  S
C129        C130   1.381       .  A
C129        H132   1.082       .  S
C130        C338   1.487   1_545  S
C130        C131   1.386       .  A
C131        H133   1.081   1_545  S
Cu134       N137   2.061       .  S
Cu135       N145   2.076       .  S
Cu136       N138   2.093       .  S
Cu136       N144   2.093       .  S
N137        N138   1.322   1_545  A
N137        C141   1.343       .  A
N138        C139   1.350       .  A
C139        C140   1.386       .  A
C139        H142   1.082       .  S
C140        C141   1.377   1_565  A
C141        H143   1.082       .  S
N144        N145   1.325   1_565  A
N144        C148   1.349       .  A
N145        C146   1.343       .  A
C146        C147   1.382   1_545  A
C146        H149   1.082       .  S
C147        C237   1.492       .  S
C147        C148   1.387       .  A
C148        H150   1.082       .  S
N151        N152   1.321       .  A
N151        C155   1.348       .  A
N151       Cu159   2.072       .  S
N152        C153   1.340       .  A
N152       Cu158   2.059       .  S
C153        C154   1.380       .  A
C153        H156   1.082       .  S
C154        C366   1.483       .  S
C154        C155   1.385       .  A
C155        H157   1.081       .  S
Cu158       N161   2.060       .  S
Cu159       N169   2.073       .  S
Cu160       N162   2.092       .  S
Cu160       N168   2.093       .  S
N161        N162   1.322       .  A
N161        C165   1.342       .  A
N162        C163   1.350       .  A
C163        C164   1.386       .  A
C163        H166   1.082       .  S
C164        C165   1.377       .  A
C165        H167   1.082       .  S
N168        N169   1.324       .  A
N168        C172   1.349       .  A
N169        C170   1.342       .  A
C170        C171   1.383       .  A
C170        H173   1.082       .  S
C171        C223   1.495       .  S
C171        C172   1.389       .  A
C172        H174   1.081       .  S
N175        N176   1.320       .  A
N175        C179   1.348       .  A
N175       Cu183   2.074       .  S
N176        C177   1.340       .  A
N176       Cu182   2.055       .  S
C177        C178   1.380       .  A
C177        H180   1.082       .  S
C178        C380   1.485       .  S
C178        C179   1.386       .  A
C179        H181   1.082       .  S
Cu182       N185   2.055       .  S
Cu183       N193   2.076       .  S
Cu184       N186   2.088       .  S
Cu184       N192   2.089       .  S
N185        N186   1.322       .  A
N185        C189   1.341       .  A
N186        C187   1.349       .  A
C187        C188   1.385       .  A
C187        H190   1.082       .  S
C188        C189   1.375       .  A
C189        H191   1.082       .  S
N192        N193   1.324       .  A
N192        C196   1.348       .  A
N193        C194   1.343       .  A
C194        C195   1.384       .  A
C194        H197   1.082       .  S
C195        C226   1.494       .  S
C195        C196   1.388       .  A
C196        H198   1.081       .  S
N199        N200   1.319       .  A
N199        C203   1.349       .  A
N199       Cu207   2.076       .  S
N200        C201   1.338       .  A
N200       Cu206   2.050       .  S
C201        C202   1.380       .  A
C201        H204   1.082       .  S
C202        C352   1.488       .  S
C202        C203   1.388       .  A
C203        H205   1.081       .  S
Cu206       N209   2.051       .  S
Cu207       N217   2.079       .  S
Cu208       N210   2.090       .  S
Cu208       N216   2.092       .  S
N209        N210   1.322       .  A
N209        C213   1.341       .  A
N210        C211   1.350       .  A
C211        C212   1.386       .  A
C211        H214   1.081   1_545  S
C212        C213   1.375       .  A
C213        H215   1.082       .  S
N216        N217   1.325       .  A
N216        C220   1.348       .  A
N217        C218   1.343       .  A
C218        C219   1.383       .  A
C218        H221   1.082       .  S
C219        C240   1.491   1_545  S
C219        C220   1.386       .  A
C220        H222   1.082   1_545  S
C223        C224   1.416       .  A
C223        C228   1.415       .  A
C224        C225   1.411       .  A
C224        C229   1.452       .  S
C225        C226   1.415       .  A
C225        C232   1.452       .  S
C226        C227   1.416       .  A
C227        C228   1.415       .  A
C227        C230   1.451   1_655  S
C228        C231   1.451   1_655  S
C229        N236   1.157       .  T
C230        N235   1.157       .  T
C231        N233   1.157       .  T
C232        N234   1.157       .  T
C237        C238   1.415   1_565  A
C237        C242   1.415       .  A
C238        C239   1.415       .  A
C238        C243   1.451       .  S
C239        C240   1.415   1_545  A
C239        C246   1.451       .  S
C240        C241   1.414       .  A
C241        C242   1.410       .  A
C241        C244   1.452       .  S
C242        C245   1.452       .  S
C243        N250   1.157       .  T
C244        N249   1.157       .  T
C245        N247   1.157       .  T
C246        N248   1.157       .  T
C251        C252   1.412   1_565  A
C251        C256   1.412       .  A
C252        C253   1.411       .  A
C252        C257   1.451       .  S
C253        C254   1.413   1_545  A
C253        C260   1.451       .  S
C254        C255   1.411       .  A
C255        C256   1.407       .  A
C255        C258   1.452       .  S
C256        C259   1.452       .  S
C257        N264   1.157       .  T
C258        N263   1.157       .  T
C259        N261   1.157       .  T
C260        N262   1.157       .  T
C265        C266   1.412   1_655  A
C265        C270   1.411       .  A
C266        C267   1.407       .  A
C266        C271   1.451       .  S
C267        C268   1.410   1_455  A
C267        C274   1.451       .  S
C268        C269   1.413       .  A
C269        C270   1.411       .  A
C269        C272   1.451       .  S
C270        C273   1.451       .  S
C271        N278   1.157       .  T
C272        N277   1.157       .  T
C273        N275   1.157       .  T
C274        N276   1.157       .  T
C279        C280   1.435   1_655  A
C279        C284   1.458       .  A
C280        C281   1.410       .  A
C280        C285   1.444       .  S
C281        C282   1.399   1_455  A
C281        C288   1.453       .  S
C282        C283   1.400       .  A
C283        C284   1.416       .  A
C283        C286   1.456       .  S
C284        C287   1.455       .  S
C285        N292   1.158       .  T
C286        N291   1.157       .  T
C287        N289   1.158       .  T
C288        N290   1.157       .  T
C293        C294   1.445       .  A
C293        C298   1.433   1_565  A
C294        C295   1.407       .  A
C294        C299   1.456       .  S
C295        C296   1.404       .  A
C295        C302   1.454       .  S
C296        C297   1.407   1_565  A
C297        C298   1.415       .  A
C297        C300   1.450       .  S
C298        C301   1.449       .  S
C299        N306   1.158       .  T
C300        N305   1.157       .  T
C301        N303   1.158       .  T
C302        N304   1.157       .  T
C307        C308   1.443       .  A
C307        C312   1.434       .  A
C308        C309   1.428       .  A
C308        C313   1.447       .  S
C309        C310   1.410       .  A
C309        C316   1.450       .  S
C310        C311   1.399       .  A
C311        C312   1.393       .  A
C311        C314   1.454       .  S
C312        C315   1.444   1_545  S
C313        N320   1.157       .  T
C314        N319   1.157   1_655  T
C315        N317   1.158       .  T
C316        N318   1.157       .  T
C321        C322   1.414       .  A
C321        C326   1.396   1_545  A
C322        C323   1.434       .  A
C322        C327   1.448       .  S
C323        C324   1.449   1_455  A
C323        C330   1.448       .  S
C324        C325   1.423   1_545  A
C325        C326   1.382   1_655  A
C325        C328   1.448   1_565  S
C326        C329   1.450       .  S
C327        N334   1.157       .  T
C328        N333   1.157       .  T
C329        N331   1.157       .  T
C330        N332   1.157       .  T
C335        C336   1.450       .  A
C335        C340   1.454   1_565  A
C336        C337   1.410       .  A
C336        C341   1.453       .  S
C337        C338   1.398       .  A
C337        C344   1.457       .  S
C338        C339   1.400   1_565  A
C339        C340   1.422       .  A
C339        C342   1.456       .  S
C340        C343   1.450       .  S
C341        N348   1.157       .  T
C342        N347   1.157       .  T
C343        N345   1.159       .  T
C344        N346   1.157       .  T
C349        C350   1.453   1_645  A
C349        C354   1.449       .  A
C350        C351   1.421       .  A
C350        C355   1.452       .  S
C351        C352   1.401   1_565  A
C351        C358   1.456       .  S
C352        C353   1.399       .  A
C353        C354   1.409   1_455  A
C353        C356   1.457       .  S
C354        C357   1.454       .  S
C355        N362   1.159       .  T
C356        N361   1.157       .  T
C357        N359   1.157       .  T
C358        N360   1.157       .  T
C363        C364   1.449       .  A
C363        C368   1.455       .  A
C364        C365   1.409   1_655  A
C364        C369   1.453   1_655  S
C365        C366   1.397   1_455  A
C365        C372   1.456       .  S
C366        C367   1.398       .  A
C367        C368   1.420       .  A
C367        C370   1.456       .  S
C368        C371   1.451       .  S
C369        N376   1.157   1_565  T
C370        N375   1.157       .  T
C371        N373   1.159       .  T
C372        N374   1.157       .  T
C377        C378   1.456       .  A
C377        C382   1.450       .  A
C378        C379   1.418       .  A
C378        C383   1.452   1_655  S
C379        C380   1.398       .  A
C379        C386   1.457   1_655  S
C380        C381   1.398       .  A
C381        C382   1.411       .  A
C381        C384   1.456       .  S
C382        C385   1.453       .  S
C383        N390   1.159       .  T
C384        N389   1.157       .  T
C385        N387   1.157   1_545  T
C386        N388   1.157       .  T
