geometry optimzed in LAMMPS
_audit_creation_date              2020-11-30 
_audit_creation_method            'lammps2cif' 
_symmetry_space_group_name_H-M    'P1' 
_symmetry_Int_Tables_number       1 
_symmetry_cell_setting            triclinic 
loop_ 
_symmetry_equiv_pos_as_xyz 
  x,y,z 
_cell_length_a                    33.71796763 
_cell_length_b                    66.0331262073125 
_cell_length_c                    43.8798805041622 
_cell_angle_alpha                 91.23487407577532 
_cell_angle_beta                  89.24450137394895 
_cell_angle_gamma                 92.59414923851222 
loop_ 
_atom_site_label 
_atom_site_type_symbol 
_atom_site_fract_x 
_atom_site_fract_y 
_atom_site_fract_z 
_atom_site_charge 
N1          N  0.18103303  0.34983023  0.24109313    -0.03400
C2          C  0.16978286  0.33565393  0.26206902    -0.00800
C3          C  0.16410038  0.34510375  0.29007967    -0.23700
C4          C  0.16871468  0.36560047  0.28572694    -0.23900
C5          C  0.17713449  0.36832203  0.25511421    -0.00900
H6          H  0.15197861  0.33809902  0.31046041     0.12800
H7          H  0.16095822  0.37723072  0.30223033     0.12900
N8          N  0.20896846  0.67016104  0.23001425    -0.03400
C9          C  0.19787835  0.65427023  0.21129362    -0.00800
C10         C  0.19026411  0.66138347  0.18264944    -0.23700
C11         C  0.19306063  0.68218986  0.18471754    -0.23900
C12         C  0.20214334  0.68733397  0.21459712    -0.00900
H13         H  0.17702216  0.65271870  0.16387843     0.12800
H14         H  0.18218514  0.69224236  0.16787131     0.12900
N15         N  0.22471329  0.66913995  0.25992566    -0.03400
C16         C  0.23580377  0.68521713  0.27835441    -0.00800
C17         C  0.24384480  0.67832575  0.30707640    -0.23700
C18         C  0.24113507  0.65748927  0.30541509    -0.23900
C19         C  0.23155032  0.65209568  0.27573498    -0.00900
H20         H  0.25717071  0.68718168  0.32562733     0.12800
H21         H  0.25169387  0.64752548  0.32251157     0.12900
O22         O  0.49606737  0.48967788  0.25947885    -0.74400
O23         O  0.41285519  0.52695463  0.26197299    -0.74400
O24         O  0.41548306  0.48606093  0.25633587    -0.74500
O25         O  0.49351436  0.53039277  0.26430772    -0.74500
O26         O  0.49522591  0.53280049  0.21372801    -0.74400
O27         O  0.42001270  0.48807407  0.20585075    -0.74400
O28         O  0.41470536  0.52905793  0.21149135    -0.74400
O29         O  0.50088125  0.49202030  0.20912222    -0.74500
Ni30       Ni  0.45428822  0.50817563  0.26227244     1.25400
Ni31       Ni  0.45778021  0.51053889  0.20823351     1.25400
C32         C  0.51309541  0.48495522  0.23427050     0.87800
C33         C  0.39991494  0.53434633  0.23749162     0.87700
C34         C  0.40490223  0.47972715  0.22964658     0.87800
C35         C  0.50725525  0.53885010  0.24006137     0.87900
N36         N  0.19913455  0.34591384  0.21214878    -0.03400
C37         C  0.21278334  0.35994278  0.19179376    -0.00800
C38         C  0.22130071  0.35023601  0.16443228    -0.23700
C39         C  0.21685525  0.32973876  0.16924603    -0.23900
C40         C  0.20579737  0.32733458  0.19947784    -0.00900
H41         H  0.23649206  0.35698029  0.14500309     0.12800
H42         H  0.22825206  0.31813386  0.15414706     0.12900
C43         C  0.41904818  0.19911345  0.30872962     0.86500
C44         C  0.45684365  0.21292400  0.30710889    -0.53700
C45         C  0.46215567  0.22303043  0.28042359     0.09500
C46         C  0.42824409  0.21861637  0.25757647     0.20400
C47         C  0.38532112  0.21353055  0.30207081    -0.54400
C48         C  0.38991986  0.22374785  0.27524058     0.09600
C49         C  0.42067133  0.18534861  0.28014841    -0.54000
C50         C  0.42569762  0.19544083  0.25352756     0.10100
H51         H  0.47794739  0.21440785  0.32560736     0.14700
H52         H  0.43229319  0.22642486  0.23558985     0.00400
H53         H  0.36007814  0.21594288  0.31690742     0.15000
H54         H  0.41752115  0.16891915  0.28091882     0.14700
C55         C  0.47932315  0.82085268  0.29520910     0.86500
C56         C  0.44165718  0.80706420  0.29018263    -0.53700
C57         C  0.44152754  0.79611678  0.26354700     0.09500
C58         C  0.47893993  0.80005215  0.24360653     0.20400
C59         C  0.01533592  0.80879214  0.29314792    -0.54400
C60         C  0.01556767  0.79761401  0.26642504     0.09600
C61         C  0.48232456  0.83396253  0.26670717    -0.54000
C62         C  0.48233112  0.82327751  0.23961345     0.10100
H63         H  0.41768758  0.80461626  0.30644469     0.14700
H64         H  0.47893082  0.79137807  0.22173667     0.00400
H65         H  0.03702660  0.80710358  0.31086604     0.15000
H66         H  0.98459899  0.85243861  0.26856859     0.14700
C67         C  0.42246372  0.11557653  0.50146325     0.80300
N68         N  0.42058711  0.12600204  0.02925175    -0.78000
C69         C  0.42515638  0.11596505  0.05539830     0.82700
N70         N  0.43297305  0.09597491  0.05412139    -0.78000
C71         C  0.43649016  0.08608946  0.02670032     0.82800
N72         N  0.42684016  0.09511623  0.49983513    -0.79700
C73         C  0.98640770  0.90613377  0.49485360     0.80300
N74         N  0.98406605  0.92661487  0.49646399    -0.78000
C75         C  0.48970608  0.93631449  0.02106439     0.82700
N76         N  0.97666493  0.92488472  0.04749931    -0.78000
C77         C  0.98209672  0.90457950  0.04652240     0.82800
N78         N  0.98697392  0.89517847  0.01897723    -0.79700
C79         C  0.48469314  0.95858555  0.02271633    -0.19800
C80         C  0.45650394  0.96708556  0.04278358     0.36400
C81         C  0.45134940  0.98813196  0.04291471    -0.25800
C82         C  0.47385165  0.00090870  0.02357184     0.02800
C83         C  0.48808280  0.98995622  0.50144184     0.27600
C84         C  0.49349302  0.96893931  0.50166714    -0.24900
N85         N  0.43242586  0.95425641  0.06237697    -0.82300
H86         H  0.42915624  0.99460828  0.05781495     0.13400
C87         C  0.46552493  0.02285003  0.02332986     0.02800
N88         N  0.51052956  0.00270492  0.48070858    -0.80900
H89         H  0.01574465  0.96351190  0.48481347     0.18300
C90         C  0.48291903  0.03607577  0.04523553    -0.25700
C91         C  0.47423981  0.05676896  0.04658972     0.36300
C92         C  0.44744099  0.06442850  0.02552775    -0.19700
C93         C  0.43033518  0.05111622  0.00345204    -0.25000
C94         C  0.43872855  0.03037465  0.00238509     0.27700
H95         H  0.50323828  0.03017524  0.06141894     0.13400
N96         N  0.49289976  0.07003977  0.06908693    -0.82300
H97         H  0.39173651  0.05508116  0.49406593     0.18300
N98         N  0.39600447  0.01451451  0.48856224    -0.80900
H99         H  0.51140412  0.06201475  0.08294160     0.33900
H100        H  0.51119714  0.08061511  0.05753888     0.38400
H101        H  0.37397135  0.02247332  0.47811056     0.33900
H102        H  0.41269925  0.00795233  0.47103080     0.30600
H103        H  0.03126862  0.99467933  0.46445582     0.33900
H104        H  0.49055124  0.00870911  0.46568213     0.30600
H105        H  0.41437582  0.94475957  0.04849950     0.38400
H106        H  0.41340064  0.96286308  0.07586031     0.33900
C107        C  0.48191494  0.83345413  0.32517685    -0.19800
C108        C  0.01761083  0.84738477  0.33475046     0.36400
C109        C  0.01854285  0.85898470  0.36199569    -0.25800
C110        C  0.98430318  0.86090153  0.38001486     0.02800
C111        C  0.45329430  0.84450987  0.37436099     0.27600
C112        C  0.45048609  0.83332661  0.34682385    -0.24900
N113        N  0.05275765  0.84675068  0.31611709    -0.82300
H114        H  0.04610584  0.86668063  0.36900598     0.13400
C115        C  0.98631716  0.87272297  0.40906291     0.02800
N116        N  0.42107558  0.84368893  0.39619586    -0.80900
H117        H  0.42313479  0.82477084  0.34292577     0.18300
C118        C  0.46331871  0.88474500  0.41313841    -0.25700
C119        C  0.46280698  0.89642539  0.44019280     0.36300
C120        C  0.98637311  0.89505226  0.46488026    -0.19700
C121        C  0.00220083  0.87568721  0.46288478    -0.25000
C122        C  0.00213277  0.86442696  0.43530805     0.27700
H123        H  0.44195883  0.88744073  0.39559719     0.13400
N124        N  0.43356798  0.91133136  0.44449278    -0.82300
H125        H  0.01462353  0.86923008  0.48293475     0.18300
N126        N  0.01765162  0.84449967  0.43386552    -0.80900
H127        H  0.43705286  0.92174988  0.42694748     0.33900
H128        H  0.40550389  0.90405501  0.44245776     0.38400
H129        H  0.02834793  0.84060636  0.45511445     0.33900
H130        H  0.99406370  0.83417830  0.42890596     0.30600
H131        H  0.39751182  0.83427691  0.38822802     0.33900
H132        H  0.43134468  0.83703507  0.41583286     0.30600
H133        H  0.07542644  0.84120945  0.32919475     0.38400
H134        H  0.06111961  0.86158552  0.31009661     0.33900
C135        C  0.48685553  0.83358346  0.20964295    -0.19800
C136        C  0.46343214  0.82770804  0.18426522     0.36400
C137        C  0.46648534  0.83891437  0.15738040    -0.25800
C138        C  0.98899498  0.85661305  0.15583094     0.02800
C139        C  0.01392773  0.86278362  0.18014722     0.27600
C140        C  0.01206840  0.85189440  0.20734983    -0.24900
N141        N  0.43524694  0.81091179  0.18596075    -0.82300
H142        H  0.44728744  0.83463570  0.13847637     0.13400
C143        C  0.98766640  0.86872461  0.12776697     0.02800
N144        N  0.04086561  0.88015014  0.17710909    -0.80900
H145        H  0.03118199  0.85675793  0.22602293     0.18300
C146        C  0.48556454  0.88901143  0.12953578    -0.25700
C147        C  0.48499484  0.90123115  0.10371378     0.36300
C148        C  0.98350598  0.89258089  0.07498113    -0.19700
C149        C  0.99557891  0.87240582  0.07299686    -0.25000
C150        C  0.99784360  0.86046238  0.09902912     0.27700
H151        H  0.47944922  0.89571776  0.15176930     0.13400
N152        N  0.47612264  0.92214177  0.10755757    -0.82300
H153        H  0.00373586  0.86587427  0.05107838     0.18300
N154        N  0.01078172  0.84003896  0.09646544    -0.80900
H155        H  0.49708820  0.92905981  0.12223089     0.33900
H156        H  0.44816826  0.92287724  0.11802180     0.38400
H157        H  0.01699787  0.83617765  0.07372082     0.33900
H158        H  0.03750244  0.83950794  0.10818202     0.30600
H159        H  0.05701092  0.88276887  0.19710108     0.33900
H160        H  0.06143162  0.87674938  0.15992032     0.30600
H161        H  0.40717763  0.81614851  0.18139287     0.38400
H162        H  0.44229304  0.80038615  0.16881611     0.33900
C163        C  0.41828213  0.12775937  0.47332687    -0.19800
C164        C  0.41738064  0.14926735  0.47452090     0.36400
C165        C  0.41504552  0.16013993  0.44755086    -0.25800
C166        C  0.41324718  0.15022581  0.41909695     0.02800
C167        C  0.41280163  0.12886217  0.41758042     0.27600
C168        C  0.41554089  0.11786028  0.44461532    -0.24900
N169        N  0.41926291  0.16036185  0.50292870    -0.82300
H170        H  0.41532983  0.17656011  0.44883757     0.13400
C171        C  0.41337633  0.16253209  0.39109610     0.02800
N172        N  0.40947289  0.11845308  0.38855867    -0.80900
H173        H  0.41556458  0.10147010  0.44313797     0.18300
C174        C  0.44535859  0.16152220  0.37058372    -0.25700
C175        C  0.44741621  0.17336100  0.34440057     0.36300
C176        C  0.41678224  0.18666654  0.33804957    -0.19700
C177        C  0.38475574  0.18764588  0.35903256    -0.25000
C178        C  0.38280471  0.17574299  0.38534273     0.27700
H179        H  0.46923059  0.15158697  0.37509578     0.13400
N180        N  0.48094270  0.17180206  0.32419755    -0.82300
H181        H  0.36072099  0.19744282  0.35536678     0.18300
N182        N  0.34970011  0.17690398  0.40620672    -0.80900
H183        H  0.48223163  0.15670540  0.31670506     0.33900
H184        H  0.50663966  0.17556138  0.33655256     0.38400
H185        H  0.32973687  0.18739882  0.39891838     0.33900
H186        H  0.33446676  0.16275449  0.40585191     0.30600
H187        H  0.40948767  0.10276514  0.39127822     0.33900
H188        H  0.38184117  0.12153241  0.37961003     0.30600
H189        H  0.46368698  0.15760900  0.00763072     0.38400
H190        H  0.39390415  0.16885580  0.50506402     0.33900
C191        C  0.42514229  0.12747834  0.08457349    -0.19800
C192        C  0.39985768  0.12170997  0.10900984     0.36400
C193        C  0.39955058  0.13386179  0.13576778    -0.25800
C194        C  0.42416874  0.15150287  0.13838629     0.02800
C195        C  0.44970663  0.15715551  0.11409486     0.27600
C196        C  0.44962430  0.14518441  0.08725346    -0.24900
N197        N  0.37426830  0.10376982  0.10635492    -0.82300
H198        H  0.38023686  0.12956516  0.15470585     0.13400
C199        C  0.42465081  0.16332046  0.16736897     0.02800
N200        N  0.47616278  0.17476396  0.11709840    -0.80900
H201        H  0.46905333  0.14954656  0.06840998     0.18300
C202        C  0.45161429  0.15846314  0.18977479    -0.25700
C203        C  0.45288810  0.16906584  0.21776955     0.36300
C204        C  0.42680124  0.18480875  0.22350734    -0.19700
C205        C  0.40038557  0.19000457  0.20081126    -0.25000
C206        C  0.39889471  0.17929962  0.17272276     0.27700
H207        H  0.47171021  0.14633507  0.18550360     0.13400
N208        N  0.48116228  0.16405029  0.24016072    -0.82300
H209        H  0.38026681  0.20208917  0.20532461     0.18300
N210        N  0.37089859  0.18426804  0.14992705    -0.80900
H211        H  0.50955056  0.16580732  0.23043451     0.33900
H212        H  0.47616451  0.14877552  0.24544322     0.38400
H213        H  0.35369614  0.19616196  0.15767995     0.33900
H214        H  0.38697563  0.18959900  0.13098537     0.30600
H215        H  0.49363379  0.17657587  0.09739462     0.33900
H216        H  0.45888731  0.18748394  0.11900775     0.30600
H217        H  0.35401923  0.10609795  0.08907051     0.38400
H218        H  0.35759076  0.10165833  0.12638639     0.33900
C219        C  0.35994394  0.23802098  0.26436992    -0.19800
C220        C  0.37132001  0.25621987  0.24962174     0.36400
C221        C  0.34227687  0.26942886  0.24067813    -0.25800
C222        C  0.30174313  0.26526671  0.24675862     0.02800
C223        C  0.29006207  0.24705288  0.26125541     0.27600
C224        C  0.31915161  0.23356508  0.26958743    -0.24900
N225        N  0.41236379  0.26188261  0.24472723    -0.82300
H226        H  0.35158711  0.28331800  0.22938277     0.13400
C227        C  0.27242682  0.28050569  0.23847136     0.02800
N228        N  0.24883056  0.24251609  0.26802032    -0.80900
H229        H  0.30983341  0.21953434  0.28043902     0.18300
C230        C  0.24131555  0.27513820  0.21842308    -0.25700
C231        C  0.21625227  0.28977497  0.20745542     0.36300
C232        C  0.22272498  0.31041156  0.21645218    -0.19700
C233        C  0.25202886  0.31540253  0.23817537    -0.25000
C234        C  0.27676373  0.30074410  0.24929791     0.27700
H235        H  0.23732629  0.25956758  0.21034194     0.13400
N236        N  0.18527384  0.28322353  0.18678500    -0.82300
H237        H  0.25716865  0.33103989  0.24536227     0.18300
N238        N  0.30719255  0.30645203  0.27088996    -0.80900
H239        H  0.16636670  0.27291356  0.19833263     0.33900
H240        H  0.16775204  0.29520868  0.18123452     0.38400
H241        H  0.30688309  0.32194566  0.27627840     0.33900
H242        H  0.30044052  0.29879050  0.29104009     0.30600
H243        H  0.24514328  0.22854366  0.27870498     0.33900
H244        H  0.23948088  0.25349190  0.28372669     0.30600
H245        H  0.41843368  0.27582287  0.25583173     0.38400
H246        H  0.41704275  0.26384540  0.22135016     0.33900
C247        C  0.23562342  0.37901748  0.20033043    -0.19800
C248        C  0.23472672  0.39642088  0.18240830     0.36400
C249        C  0.26135935  0.41300887  0.18825739    -0.25800
C250        C  0.28933933  0.41248542  0.21165041     0.02800
C251        C  0.28964916  0.39527724  0.23015201     0.27600
C252        C  0.26269957  0.37880949  0.22438501    -0.24900
N253        N  0.20681173  0.39725537  0.15821793    -0.82300
H254        H  0.26056328  0.42626868  0.17419133     0.13400
C255        C  0.31882215  0.42976393  0.21603474     0.02800
N256        N  0.31820639  0.39430852  0.25406613    -0.80900
H257        H  0.26395151  0.36542834  0.23801597     0.18300
C258        C  0.32033416  0.44036886  0.24408654    -0.25700
C259        C  0.34800621  0.45664058  0.24910270     0.36300
C260        C  0.37507184  0.46250656  0.22571952    -0.19700
C261        C  0.37328068  0.45188887  0.19755207    -0.25000
C262        C  0.34569811  0.43555340  0.19253825     0.27700
H263        H  0.29956567  0.43611199  0.26215017     0.13400
N264        N  0.34771126  0.46743841  0.27774461    -0.82300
H265        H  0.39388025  0.45615310  0.17939896     0.18300
N266        N  0.34518122  0.42466465  0.16379657    -0.80900
H267        H  0.31951516  0.47313553  0.28110558     0.33900
H268        H  0.35232769  0.45711992  0.29494662     0.38400
H269        H  0.36660829  0.43090035  0.14886168     0.33900
H270        H  0.35318196  0.40985210  0.16782818     0.30600
H271        H  0.31436129  0.38067099  0.26564094     0.33900
H272        H  0.34640330  0.39429177  0.24385151     0.30600
H273        H  0.18933458  0.40971572  0.16247115     0.38400
H274        H  0.22268720  0.39976176  0.13792131     0.33900
C275        C  0.25647387  0.70419401  0.26749564    -0.19800
C276        C  0.25322719  0.72277443  0.28350927     0.36400
C277        C  0.27995824  0.73915608  0.27709573    -0.25800
C278        C  0.31016355  0.73716739  0.25504105     0.02800
C279        C  0.31179635  0.71910455  0.23757342     0.27600
C280        C  0.28479073  0.70287376  0.24385192    -0.24900
N281        N  0.22359948  0.72480588  0.30690834    -0.82300
H282        H  0.27870628  0.75301992  0.29067590     0.13400
C283        C  0.34437154  0.75204698  0.25493332     0.02800
N284        N  0.34251673  0.71689040  0.21487811    -0.80900
H285        H  0.28731873  0.68880715  0.23123069     0.18300
C286        C  0.37571286  0.74867385  0.27448661    -0.25700
C287        C  0.40884411  0.76213366  0.27640615     0.36300
C288        C  0.41076917  0.77966557  0.25819652    -0.19700
C289        C  0.37949908  0.78293085  0.23826831    -0.25000
C290        C  0.34629579  0.76917447  0.23629286     0.27700
H291        H  0.37416211  0.73546247  0.28878533     0.13400
N292        N  0.43905827  0.75778397  0.29789005    -0.82300
H293        H  0.38014068  0.79666137  0.22525020     0.18300
N294        N  0.31408409  0.77286909  0.21633043    -0.80900
H295        H  0.44988169  0.74363327  0.29192370     0.33900
H296        H  0.46333769  0.76806595  0.29668980     0.38400
H297        H  0.31984842  0.78631653  0.20458684     0.33900
H298        H  0.31272167  0.76119394  0.19987181     0.31400
H299        H  0.34036759  0.70243180  0.20467114     0.33900
H300        H  0.33765666  0.72715528  0.19767487     0.30600
H301        H  0.20577713  0.73664980  0.30110481     0.38400
H302        H  0.23791980  0.72889433  0.32726310     0.33900
C303        C  0.24555028  0.63268264  0.26235397    -0.19800
C304        C  0.27715339  0.63258484  0.24095374     0.36400
C305        C  0.29495789  0.61436713  0.23302845    -0.25800
C306        C  0.28206972  0.59605683  0.24621534     0.02800
C307        C  0.24887893  0.59586220  0.26613147     0.27600
C308        C  0.23125562  0.61415060  0.27436849    -0.24900
N309        N  0.29290877  0.65111357  0.22847956    -0.82300
H310        H  0.32067458  0.61477361  0.21793694     0.13400
C311        C  0.30816407  0.57848812  0.24345536     0.02800
N312        N  0.23361791  0.57715925  0.27852063    -0.80900
H313        H  0.20695639  0.61396064  0.29078780     0.18300
C314        C  0.32713234  0.57241821  0.26968692    -0.25700
C315        C  0.35683931  0.55822946  0.26817601     0.36300
C316        C  0.36775750  0.54929630  0.23976141    -0.19700
C317        C  0.34792741  0.55509126  0.21345122    -0.25000
C318        C  0.31851125  0.56965428  0.21510030     0.27700
H319        H  0.32012698  0.57948150  0.29151649     0.13400
N320        N  0.37676509  0.55361432  0.29564096    -0.82300
H321        H  0.35550262  0.54848617  0.19144392     0.18300
N322        N  0.29924689  0.57549085  0.18797425    -0.80900
H323        H  0.38960311  0.56709889  0.30473205     0.33900
H324        H  0.35553796  0.54801117  0.31126510     0.38400
H325        H  0.32102673  0.58115244  0.17284296     0.33900
H326        H  0.28569030  0.56248524  0.17795910     0.30600
H327        H  0.23463902  0.57846947  0.30228462     0.33900
H328        H  0.20383129  0.57517091  0.27230508     0.30600
H329        H  0.32290775  0.65282280  0.23415956     0.38400
H330        H  0.29100937  0.64992281  0.20474070     0.33900
C331        C  0.04656169  0.78251183  0.25938424    -0.19800
C332        C  0.03739019  0.76370808  0.24449419     0.36400
C333        C  0.06700632  0.74966270  0.23987854    -0.25800
C334        C  0.10578314  0.75363197  0.25024535     0.02800
C335        C  0.11551218  0.77241614  0.26472307     0.27600
C336        C  0.08595906  0.78670887  0.26890139    -0.24900
N337        N  0.99785960  0.75831542  0.23486196    -0.82300
H338        H  0.05943032  0.73529846  0.22849886     0.13400
C339        C  0.13528860  0.73769175  0.24577137     0.02800
N340        N  0.15510007  0.77674946  0.27555626    -0.80900
H341        H  0.09374228  0.80116164  0.27988668     0.18300
C342        C  0.16841552  0.74122447  0.22660909    -0.25700
C343        C  0.19302353  0.72544676  0.21777480     0.36300
C344        C  0.18451398  0.70563164  0.22870837    -0.19700
C345        C  0.15307902  0.70255912  0.24967439    -0.25000
C346        C  0.12833095  0.71832248  0.25819923     0.27700
H347        H  0.17404668  0.75613009  0.21718401     0.13400
N348        N  0.22538251  0.72998098  0.19699456    -0.82300
H349        H  0.14620588  0.68746523  0.25797628     0.18300
N350        N  0.09508209  0.71456353  0.27846462    -0.80900
H351        H  0.24443839  0.74074429  0.20775043     0.33900
H352        H  0.24213751  0.71732380  0.19259311     0.38400
H353        H  0.09364281  0.69946379  0.28523293     0.33900
H354        H  0.09996449  0.72346931  0.29816805     0.30600
H355        H  0.15745629  0.79124459  0.28562439     0.33900
H356        H  0.16027098  0.76651997  0.29276119     0.30600
H357        H  0.49594525  0.75314420  0.21031199     0.38400
H358        H  0.98877063  0.74471718  0.24512004     0.33900
C359        C  0.17757831  0.63512911  0.22168504    -0.19800
C360        C  0.18107281  0.61676185  0.20500529     0.36400
C361        C  0.15655937  0.59979289  0.21267364    -0.25800
C362        C  0.12822547  0.60092836  0.23629190     0.02800
C363        C  0.12612114  0.61897735  0.25387223     0.27600
C364        C  0.15059739  0.63585912  0.24638842    -0.24900
N365        N  0.20810961  0.61570894  0.17947665    -0.82300
H366        H  0.15783714  0.58595293  0.19903654     0.13400
C367        C  0.09637932  0.58478594  0.23808388     0.02800
N368        N  0.09788007  0.62089801  0.27832264    -0.80900
H369        H  0.14717435  0.64991522  0.25911415     0.18300
C370        C  0.09385209  0.57139004  0.26250369    -0.25700
C371        C  0.06349476  0.55601473  0.26372248     0.36300
C372        C  0.03545573  0.55396353  0.24003531    -0.19700
C373        C  0.03801425  0.56767891  0.21599791    -0.25000
C374        C  0.06790109  0.58302838  0.21497350     0.27700
H375        H  0.11568163  0.57272866  0.28042344     0.13400
N376        N  0.06196937  0.54225705  0.28853590    -0.82300
H377        H  0.01656097  0.56656960  0.19779461     0.18300
N378        N  0.06913539  0.59703553  0.19045426    -0.80900
H379        H  0.08892638  0.53504636  0.28895408     0.33900
H380        H  0.05929161  0.55073490  0.30879955     0.38400
H381        H  0.07154648  0.58877264  0.16997259     0.33900
H382        H  0.04221202  0.60429299  0.19045910     0.30600
H383        H  0.10335610  0.60999941  0.29448430     0.33900
H384        H  0.06939338  0.61793065  0.26971886     0.30600
H385        H  0.23687536  0.61820176  0.18767070     0.38400
H386        H  0.20685249  0.60116796  0.16952597     0.33900
C387        C  0.49700019  0.23732053  0.27535790    -0.19800
C388        C  0.01803279  0.23799889  0.24641676     0.36400
C389        C  0.05040047  0.25182142  0.24122281    -0.25800
C390        C  0.06199182  0.26637021  0.26355274     0.02800
C391        C  0.54176012  0.26424474  0.29594375     0.27600
C392        C  0.50854506  0.25088215  0.29904267    -0.24900
N393        N  0.00799364  0.22269321  0.22387211    -0.82300
H394        H  0.06680558  0.25104590  0.21985976     0.13400
C395        C  0.09542697  0.28131124  0.25766229     0.02800
N396        N  0.55130495  0.27860451  0.31997152    -0.80900
H397        H  0.49120446  0.25139536  0.31999374     0.18300
C398        C  0.09054985  0.29648430  0.23645704    -0.25700
C399        C  0.11691815  0.31355957  0.23540475     0.36300
C400        C  0.14922486  0.31551741  0.25559986    -0.19700
C401        C  0.15609657  0.29929962  0.27479417    -0.25000
C402        C  0.12962069  0.28221845  0.27581663     0.27700
H403        H  0.06449003  0.29584610  0.22220346     0.13400
N404        N  0.10873475  0.32954777  0.21540953    -0.82300
H405        H  0.18090144  0.30042043  0.29028830     0.18300
N406        N  0.13670320  0.26610989  0.29608319    -0.80900
H407        H  0.08017320  0.33426552  0.22054525     0.33900
H408        H  0.10874033  0.32367123  0.19309521     0.38400
H409        H  0.13847700  0.27221030  0.31822996     0.33900
H410        H  0.16426536  0.26037247  0.29030823     0.30600
H411        H  0.52678844  0.28751130  0.32377197     0.33900
H412        H  0.05599627  0.27573422  0.33387896     0.30600
H413        H  0.53336970  0.21435093  0.21915005     0.38400
H414        H  0.00157268  0.22989122  0.20364910     0.33900
C415        C  0.04021985  0.46918658  0.23037191    -0.19800
C416        C  0.05573661  0.46145745  0.25741549     0.36400
C417        C  0.08597878  0.44761402  0.25576343    -0.25800
C418        C  0.10217407  0.44127566  0.22776547     0.02800
C419        C  0.08809057  0.44946932  0.20067313     0.27600
C420        C  0.05720335  0.46325198  0.20223444    -0.24900
N421        N  0.54734872  0.47125030  0.29127455    -0.82300
H422        H  0.09599083  0.44124046  0.27672497     0.13400
C423        C  0.13015723  0.42435703  0.22774502     0.02800
N424        N  0.10502961  0.44367820  0.17172962    -0.80900
H425        H  0.04621081  0.46923933  0.18133001     0.18300
C426        C  0.12023954  0.40648015  0.21126948    -0.25700
C427        C  0.13824623  0.38826928  0.21740995     0.36300
C428        C  0.16689917  0.38771139  0.24056641    -0.19700
C429        C  0.18004808  0.40614798  0.25450196    -0.25000
C430        C  0.16230629  0.42447734  0.24808830     0.27700
H431        H  0.09592147  0.40615424  0.19534361     0.13400
N432        N  0.12507504  0.37023286  0.20137017    -0.82300
H433        H  0.20270951  0.40602359  0.27177242     0.18300
N434        N  0.17542326  0.44305048  0.26323807    -0.80900
H435        H  0.09430596  0.36851638  0.20437797     0.33900
H436        H  0.13072648  0.37235071  0.17814318     0.38400
H437        H  0.19912317  0.44056430  0.27761923     0.33900
H438        H  0.18638158  0.45291998  0.24648990     0.30600
H439        H  0.09147210  0.45102565  0.15403297     0.33900
H440        H  0.13486607  0.44874074  0.17163491     0.30600
H441        H  0.53606491  0.45871548  0.30330371     0.38400
H442        H  0.57112609  0.47789920  0.30351889     0.33900
N443        N  0.17998028  0.34855437  0.73848127    -0.03400
C444        C  0.16926078  0.33406609  0.75908934    -0.00800
C445        C  0.16562262  0.34294254  0.78772253    -0.23700
C446        C  0.17102567  0.36348541  0.78430143    -0.23900
C447        C  0.17771271  0.36677609  0.75361417    -0.00900
H448        H  0.15451970  0.33559901  0.80814404     0.12800
H449        H  0.16468936  0.37484985  0.80161740     0.12900
N450        N  0.21151644  0.66775781  0.72909090    -0.03400
C451        C  0.20229052  0.65148610  0.71062017    -0.00800
C452        C  0.19608951  0.65808810  0.68144441    -0.23700
C453        C  0.19725019  0.67892505  0.68293888    -0.23900
C454        C  0.20428092  0.68458838  0.71296345    -0.00900
H455        H  0.18414543  0.64900198  0.66259696     0.12800
H456        H  0.18661301  0.68850898  0.66538142     0.12900
N457        N  0.22562685  0.66722267  0.75954249    -0.03400
C458        C  0.23570801  0.68356978  0.77767709    -0.00800
C459        C  0.24236714  0.67714158  0.80690491    -0.23700
C460        C  0.23995968  0.65629886  0.80591552    -0.23900
C461        C  0.23195968  0.65044201  0.77613268    -0.00900
H462        H  0.25473529  0.68628100  0.82553775     0.12800
H463        H  0.24990071  0.64665347  0.82366187     0.12900
O464        O  0.49781133  0.48707799  0.75548860    -0.74400
O465        O  0.41433154  0.52414895  0.76116108    -0.74400
O466        O  0.41673447  0.48328778  0.75469863    -0.74500
O467        O  0.49480511  0.52775797  0.76120084    -0.74500
O468        O  0.49426663  0.53048184  0.71068801    -0.74400
O469        O  0.41888903  0.48576735  0.70424225    -0.74400
O470        O  0.41396809  0.52663612  0.71069447    -0.74400
O471        O  0.50015685  0.48983400  0.70510322    -0.74500
Ni472      Ni  0.45583123  0.50540471  0.75989450     1.25400
Ni473      Ni  0.45680124  0.50818749  0.70587494     1.25400
C474        C  0.51404499  0.48287019  0.72974663     0.87800
C475        C  0.40067036  0.53186773  0.73717291     0.87700
C476        C  0.40448120  0.47735849  0.72823646     0.87800
C477        C  0.50712655  0.53652594  0.73678989     0.87900
N478        N  0.19632795  0.34512368  0.70875066    -0.03400
C479        C  0.20878892  0.35954603  0.68860179    -0.00800
C480        C  0.21696288  0.35033174  0.66080864    -0.23700
C481        C  0.21373710  0.32974417  0.66504646    -0.23900
C482        C  0.20352177  0.32680544  0.69534615    -0.00900
H483        H  0.23134718  0.35752780  0.64140067     0.12800
H484        H  0.22523290  0.31850179  0.64936478     0.12900
C485        C  0.41469742  0.19878720  0.80782588     0.86500
C486        C  0.45282778  0.21227848  0.80481432    -0.53700
C487        C  0.45702849  0.22217567  0.77783988     0.09500
C488        C  0.42204474  0.21770684  0.75604222     0.20400
C489        C  0.38079283  0.21322792  0.80167635    -0.54400
C490        C  0.38479423  0.22314231  0.77459746     0.09600
C491        C  0.41452859  0.18470926  0.77950086    -0.54000
C492        C  0.41880072  0.19449891  0.75260363     0.10100
H493        H  0.47482246  0.21377230  0.82268773     0.14700
H494        H  0.42486858  0.22555790  0.73395793     0.00400
H495        H  0.35547736  0.21548221  0.81657087     0.15000
H496        H  0.41136136  0.16829196  0.78058367     0.14700
C497        C  0.47583311  0.82074857  0.79573366     0.86500
C498        C  0.43923337  0.80614151  0.79104950    -0.53700
C499        C  0.43999493  0.79502581  0.76451028     0.09500
C500        C  0.47702644  0.79960832  0.74447863     0.20400
C501        C  0.01725541  0.80548549  0.79299936    -0.54400
C502        C  0.01711320  0.79480734  0.76587324     0.09600
C503        C  0.47746907  0.83361981  0.76701666    -0.54000
C504        C  0.47852352  0.82276153  0.74019774     0.10100
H505        H  0.41527410  0.80355904  0.80729727     0.14700
H506        H  0.47746240  0.79098101  0.72257604     0.00400
H507        H  0.03925752  0.80346549  0.81039176     0.15000
H508        H  0.98868201  0.84989082  0.77006661     0.14700
C509        C  0.42381631  0.11659302  0.00164860     0.80300
N510        N  0.42307635  0.12500376  0.52922835    -0.78000
C511        C  0.42706999  0.11453405  0.55508797     0.82700
N512        N  0.43186252  0.09424759  0.55328274    -0.78000
C513        C  0.43237566  0.08447536  0.52565912     0.82800
N514        N  0.43119735  0.09641217  0.00047211    -0.79700
C515        C  0.98595181  0.90561201  0.99271299     0.80300
N516        N  0.98095965  0.92594012  0.99406951    -0.78000
C517        C  0.47884976  0.93421225  0.52137364     0.82700
N518        N  0.98524134  0.92588173  0.54992941    -0.78000
C519        C  0.98835442  0.90538214  0.54881325     0.82800
N520        N  0.98886072  0.89573142  0.52111052    -0.79700
C521        C  0.47240058  0.95633525  0.52225721    -0.19800
C522        C  0.44511884  0.96499527  0.54293338     0.36400
C523        C  0.43958678  0.98600892  0.54253722    -0.25800
C524        C  0.46066098  0.99849997  0.52192834     0.02800
C525        C  0.50313939  0.99262133  0.00437075     0.27600
C526        C  0.50786481  0.97148041  0.00379978    -0.24900
N527        N  0.42248554  0.95239771  0.56375636    -0.82300
H528        H  0.41853183  0.99269872  0.55820616     0.13400
C529        C  0.45364336  0.02054124  0.52203779     0.02800
N530        N  0.52849398  0.00573288  0.98610672    -0.80900
H531        H  0.01335247  0.96342026  0.98575478     0.18300
C532        C  0.47860102  0.03391849  0.53898005    -0.25700
C533        C  0.47244315  0.05486938  0.54011512     0.36300
C534        C  0.44069143  0.06258717  0.52386042    -0.19700
C535        C  0.41615631  0.04919005  0.50644237    -0.25000
C536        C  0.42213757  0.02818471  0.50559190     0.27700
H537        H  0.50287721  0.02794532  0.55143217     0.13400
N538        N  0.49857282  0.06837694  0.55744250    -0.82300
H539        H  0.40950217  0.05681163  0.98748675     0.18300
N540        N  0.41902526  0.01675544  0.98086881    -0.80900
H541        H  0.52027708  0.06031139  0.56810463     0.33900
H542        H  0.51350848  0.07802559  0.54209626     0.38400
H543        H  0.39938576  0.02453635  0.96764329     0.33900
H544        H  0.44048290  0.01122328  0.96587336     0.30600
H545        H  0.03292257  0.99508305  0.96908626     0.33900
H546        H  0.51094333  0.01242281  0.97003515     0.30600
H547        H  0.40392962  0.94254626  0.55082144     0.38400
H548        H  0.40394671  0.96112428  0.57747871     0.33900
C549        C  0.47784975  0.83381326  0.82526940    -0.19800
C550        C  0.02108188  0.84412878  0.83490168     0.36400
C551        C  0.02280591  0.85591293  0.86197144    -0.25800
C552        C  0.98949576  0.85736676  0.88114600     0.02800
C553        C  0.45000020  0.84474967  0.87482067     0.27600
C554        C  0.44750794  0.83287664  0.84782406    -0.24900
N555        N  0.05547364  0.84368018  0.81542389    -0.82300
H556        H  0.05014980  0.86428896  0.86776504     0.13400
C557        C  0.99148126  0.87055828  0.90894887     0.02800
N558        N  0.41877293  0.84345669  0.89744324    -0.80900
H559        H  0.42150927  0.82302013  0.84510229     0.18300
C560        C  0.46897814  0.88934929  0.90981182    -0.25700
C561        C  0.47082200  0.90130687  0.93672700     0.36300
C562        C  0.98911199  0.89451830  0.96308311    -0.19700
C563        C  0.01366091  0.87787394  0.96069202    -0.25000
C564        C  0.01504980  0.86582747  0.93387884     0.27700
H565        H  0.45308384  0.89461107  0.89040569     0.13400
N566        N  0.45106684  0.92005323  0.93821365    -0.82300
H567        H  0.03138067  0.87406937  0.98000426     0.18300
N568        N  0.03949964  0.84855129  0.93210444    -0.80900
H569        H  0.46288566  0.92931771  0.92100555     0.33900
H570        H  0.42101106  0.91696381  0.93366425     0.38400
H571        H  0.05512223  0.84721167  0.95233838     0.33900
H572        H  0.02067396  0.83558458  0.93005890     0.30600
H573        H  0.39602340  0.83319161  0.89041739     0.33900
H574        H  0.43056201  0.83757921  0.91713439     0.30600
H575        H  0.07884011  0.83832932  0.82796555     0.38400
H576        H  0.06318780  0.85853575  0.80913151     0.33900
C577        C  0.48320202  0.83291353  0.71026351    -0.19800
C578        C  0.45940763  0.82720166  0.68505174     0.36400
C579        C  0.46273244  0.83830941  0.65814127    -0.25800
C580        C  0.99526961  0.85627632  0.65751049     0.02800
C581        C  0.02020553  0.86139595  0.68225863     0.27600
C582        C  0.01728905  0.85003982  0.70899439    -0.24900
N583        N  0.43060999  0.81071245  0.68697542    -0.82300
H584        H  0.44344267  0.83418794  0.63921961     0.13400
C585        C  0.99533615  0.86892403  0.62971858     0.02800
N586        N  0.04888200  0.87799755  0.68016909    -0.80900
H587        H  0.03655578  0.85432965  0.72784987     0.18300
C588        C  0.47718194  0.88732298  0.63007471    -0.25700
C589        C  0.47573003  0.89934850  0.60413318     0.36300
C590        C  0.99113369  0.89334009  0.57725163    -0.19700
C591        C  0.99925635  0.87259997  0.57462774    -0.25000
C592        C  0.00167527  0.86041327  0.60041861     0.27700
H593        H  0.46759125  0.89344840  0.65193410     0.13400
N594        N  0.46110999  0.91932234  0.60721845    -0.82300
H595        H  0.00402977  0.86575076  0.55231486     0.18300
N596        N  0.01085037  0.83942859  0.59698221    -0.80900
H597        H  0.47885203  0.92756606  0.62290293     0.33900
H598        H  0.43222538  0.91810328  0.61616924     0.38400
H599        H  0.01458105  0.83545196  0.57396600     0.33900
H600        H  0.03817128  0.83762973  0.60736175     0.30600
H601        H  0.04322920  0.88834027  0.69789891     0.33900
H602        H  0.07699417  0.87241613  0.68350007     0.30600
H603        H  0.40275609  0.81626513  0.68252850     0.38400
H604        H  0.43703938  0.80006657  0.66984463     0.33900
C605        C  0.42056924  0.12867667  0.97336343    -0.19800
C606        C  0.42509384  0.15021916  0.97405690     0.36400
C607        C  0.42093587  0.16102280  0.94714937    -0.25800
C608        C  0.41299091  0.15106074  0.91932252     0.02800
C609        C  0.40840963  0.12970092  0.91834699     0.27600
C610        C  0.41232038  0.11873178  0.94531272    -0.24900
N611        N  0.43489058  0.16119354  0.00182179    -0.82300
H612        H  0.42513136  0.17739639  0.94768313     0.13400
C613        C  0.41202718  0.16325550  0.89120237     0.02800
N614        N  0.39965042  0.11927276  0.88997163    -0.80900
H615        H  0.40851705  0.10235396  0.94441960     0.18300
C616        C  0.44050723  0.16018706  0.86831502    -0.25700
C617        C  0.44221558  0.17198560  0.84210637     0.36300
C618        C  0.41378638  0.18681458  0.83756837    -0.19700
C619        C  0.38593762  0.19025133  0.86120985    -0.25000
C620        C  0.38504629  0.17877453  0.88798261     0.27700
H621        H  0.46231782  0.14882965  0.87114814     0.13400
N622        N  0.47332305  0.16892798  0.82013546    -0.82300
H623        H  0.36507426  0.20204157  0.85953727     0.18300
N624        N  0.35698909  0.18290280  0.91203340    -0.80900
H625        H  0.47130544  0.15378904  0.81260918     0.33900
H626        H  0.50053743  0.17147217  0.83103714     0.38400
H627        H  0.33961970  0.19497635  0.90645690     0.33900
H628        H  0.33769605  0.17013755  0.91397003     0.30600
H629        H  0.39722232  0.10360418  0.89303886     0.33900
H630        H  0.37180496  0.12362459  0.88301097     0.30600
H631        H  0.44408591  0.17043153  0.50228318     0.38400
H632        H  0.43568271  0.17684272  0.99854423     0.33900
C633        C  0.42641237  0.12549220  0.58472091    -0.19800
C634        C  0.39984080  0.11949943  0.60818698     0.36400
C635        C  0.39789767  0.13125355  0.63519665    -0.25800
C636        C  0.42248245  0.14879424  0.63916485     0.02800
C637        C  0.44939345  0.15473243  0.61584495     0.27600
C638        C  0.45086220  0.14309775  0.58868992    -0.24900
N639        N  0.37392509  0.10188193  0.60422619    -0.82300
H640        H  0.37721411  0.12667617  0.65314182     0.13400
C641        C  0.42073068  0.16061215  0.66813022     0.02800
N642        N  0.47503592  0.17255156  0.61992066    -0.80900
H643        H  0.47113924  0.14775623  0.57052148     0.18300
C644        C  0.45102878  0.15883499  0.68930998    -0.25700
C645        C  0.45092865  0.16999858  0.71681445     0.36300
C646        C  0.42040489  0.18336160  0.72311587    -0.19700
C647        C  0.39025942  0.18537233  0.70184169    -0.25000
C648        C  0.38996177  0.17395093  0.67435406     0.27700
H649        H  0.47479606  0.14868235  0.68446836     0.13400
N650        N  0.48210635  0.16794093  0.73823444    -0.82300
H651        H  0.36664422  0.19556512  0.70696845     0.18300
N652        N  0.35860538  0.17572868  0.65283658    -0.80900
H653        H  0.50911275  0.17171883  0.72734137     0.33900
H654        H  0.48229369  0.15271878  0.74428810     0.38400
H655        H  0.33808499  0.18600519  0.66101424     0.33900
H656        H  0.37120997  0.18185371  0.63298251     0.30600
H657        H  0.49337124  0.17472738  0.60076009     0.33900
H658        H  0.45710804  0.18504979  0.62157690     0.30600
H659        H  0.34466299  0.10636680  0.60643319     0.38400
H660        H  0.37915074  0.09196593  0.62183792     0.33900
C661        C  0.35538347  0.23747247  0.76375509    -0.19800
C662        C  0.36759335  0.25688974  0.75342149     0.36400
C663        C  0.33903116  0.26997468  0.74314843    -0.25800
C664        C  0.29828706  0.26434207  0.74360996     0.02800
C665        C  0.28627458  0.24480856  0.75349918     0.27600
C666        C  0.31479219  0.23160123  0.76352995    -0.24900
N667        N  0.40880901  0.26347620  0.75413502    -0.82300
H668        H  0.34855919  0.28484164  0.73513158     0.13400
C669        C  0.26907557  0.27942502  0.73446502     0.02800
N670        N  0.24510103  0.23847104  0.75400963    -0.80900
H671        H  0.30515717  0.21664309  0.77111935     0.18300
C672        C  0.24116713  0.27454603  0.71161687    -0.25700
C673        C  0.21612126  0.28916724  0.70059728     0.36300
C674        C  0.22040955  0.30951846  0.71157127    -0.19700
C675        C  0.24699974  0.31402524  0.73543660    -0.25000
C676        C  0.27041358  0.29916117  0.74750888     0.27700
H677        H  0.23936898  0.25936835  0.70170860     0.13400
N678        N  0.18728455  0.28288044  0.67803706    -0.82300
H679        H  0.25061510  0.32941898  0.74416738     0.18300
N680        N  0.29626344  0.30414513  0.77263971    -0.80900
H681        H  0.16862874  0.27160330  0.68768551     0.33900
H682        H  0.16885505  0.29463278  0.67313058     0.38400
H683        H  0.29390108  0.31930132  0.77954518     0.33900
H684        H  0.28643372  0.29537074  0.79104165     0.30600
H685        H  0.24156474  0.22536914  0.74032757     0.33900
H686        H  0.23718508  0.23470267  0.77636330     0.30600
H687        H  0.41731418  0.26431182  0.77697469     0.38400
H688        H  0.41287003  0.27811828  0.74569248     0.33900
C689        C  0.23177165  0.37845206  0.69751216    -0.19800
C690        C  0.22777914  0.39674322  0.68218939     0.36400
C691        C  0.25321723  0.41362506  0.68921026    -0.25800
C692        C  0.28364205  0.41235941  0.71064256     0.02800
C693        C  0.28753440  0.39403731  0.72609055     0.27600
C694        C  0.26137549  0.37739329  0.71955509    -0.24900
N695        N  0.19810014  0.39815968  0.65939284    -0.82300
H696        H  0.24989422  0.42763384  0.67728107     0.13400
C697        C  0.31321716  0.42963596  0.71500214     0.02800
N698        N  0.31904393  0.39213468  0.74746490    -0.80900
H699        H  0.26520839  0.36322604  0.73083001     0.18300
C700        C  0.31992174  0.43804389  0.74426536    -0.25700
C701        C  0.34954432  0.45342892  0.74932469     0.36300
C702        C  0.37304756  0.46077917  0.72465055    -0.19700
C703        C  0.36567992  0.45249241  0.69530617    -0.25000
C704        C  0.33639056  0.43698235  0.69027505     0.27700
H705        H  0.30213452  0.43254594  0.76337567     0.13400
N706        N  0.35520934  0.46160418  0.77952089    -0.82300
H707        H  0.38328868  0.45790293  0.67607431     0.18300
N708        N  0.33063720  0.42837241  0.66018423    -0.80900
H709        H  0.32841761  0.46742949  0.78712513     0.33900
H710        H  0.36182942  0.44972039  0.79370026     0.38400
H711        H  0.34981842  0.43554420  0.64445840     0.33900
H712        H  0.33837031  0.41322831  0.66064831     0.30600
H713        H  0.31773292  0.37770119  0.75687025     0.33900
H714        H  0.34592699  0.39349237  0.73536754     0.30600
H715        H  0.17989048  0.40996019  0.66580980     0.38400
H716        H  0.21238816  0.40208300  0.63892984     0.33900
C717        C  0.25655247  0.70242833  0.76662024    -0.19800
C718        C  0.25425559  0.72093368  0.78295561     0.36400
C719        C  0.28178339  0.73696949  0.77680614    -0.25800
C720        C  0.31162211  0.73476670  0.75454711     0.02800
C721        C  0.31197996  0.71695936  0.73641341     0.27600
C722        C  0.28421719  0.70103589  0.74248318    -0.24900
N723        N  0.22481557  0.72322019  0.80643873    -0.82300
H724        H  0.28131576  0.75075147  0.79064664     0.13400
C725        C  0.34593980  0.74949518  0.75430225     0.02800
N726        N  0.34158464  0.71479252  0.71282455    -0.80900
H727        H  0.28587759  0.68708473  0.72942390     0.18300
C728        C  0.37621694  0.74689787  0.77517116    -0.25700
C729        C  0.40870200  0.76074820  0.77748190     0.36300
C730        C  0.41043234  0.77807966  0.75887843    -0.19700
C731        C  0.38051540  0.78037164  0.73740113    -0.25000
C732        C  0.34855215  0.76598236  0.73450677     0.27700
H733        H  0.37438056  0.73398810  0.79006667     0.13400
N734        N  0.43857734  0.75692635  0.79951383    -0.82300
H735        H  0.38103572  0.79383144  0.72386827     0.18300
N736        N  0.31815776  0.76837819  0.71238959    -0.80900
H737        H  0.45027418  0.74292459  0.79384714     0.33900
H738        H  0.46241744  0.76750129  0.79845568     0.38400
H739        H  0.32434297  0.78142908  0.69978370     0.33900
H740        H  0.31909190  0.75611872  0.69695536     0.31400
H741        H  0.36925377  0.71461411  0.72326264     0.33900
H742        H  0.33740698  0.70083987  0.70132070     0.30600
H743        H  0.20764296  0.73536842  0.80085941     0.38400
H744        H  0.23935969  0.72697100  0.82682516     0.33900
C745        C  0.24750148  0.63107046  0.76381917    -0.19800
C746        C  0.28058359  0.63114966  0.74375485     0.36400
C747        C  0.29911335  0.61303081  0.73648623    -0.25800
C748        C  0.28605905  0.59472458  0.74953591     0.02800
C749        C  0.25263675  0.59443404  0.76917217     0.27600
C750        C  0.23360677  0.61255226  0.77614385    -0.24900
N751        N  0.29715775  0.64978465  0.73217971    -0.82300
H752        H  0.32536259  0.61348680  0.72194344     0.13400
C753        C  0.31179718  0.57709921  0.74634504     0.02800
N754        N  0.23870416  0.57586341  0.78271026    -0.80900
H755        H  0.20871334  0.61228997  0.79202807     0.18300
C756        C  0.33526123  0.57254651  0.77111228    -0.25700
C757        C  0.36434600  0.55808455  0.76842822     0.36300
C758        C  0.36967465  0.54727176  0.74054737    -0.19700
C759        C  0.34567508  0.55169855  0.71572025    -0.25000
C760        C  0.31693260  0.56660441  0.71832683     0.27700
H761        H  0.33219353  0.58097619  0.79242822     0.13400
N762        N  0.38962587  0.55519477  0.79381649    -0.82300
H763        H  0.34950368  0.54363667  0.69419729     0.18300
N764        N  0.29337636  0.57136539  0.69260871    -0.80900
H765        H  0.40417639  0.56909465  0.79929297     0.33900
H766        H  0.37177673  0.55089482  0.81245180     0.38400
H767        H  0.30080559  0.56238999  0.67364492     0.33900
H768        H  0.26372883  0.56755778  0.69806820     0.30600
H769        H  0.23966557  0.57786256  0.80639442     0.33900
H770        H  0.20903326  0.57313420  0.77661266     0.30600
H771        H  0.32660980  0.65153536  0.73930093     0.38400
H772        H  0.29720552  0.64871318  0.70837408     0.33900
C773        C  0.04821601  0.78003254  0.75777096    -0.19800
C774        C  0.03850981  0.76102453  0.74384553     0.36400
C775        C  0.06829094  0.74720031  0.73805780    -0.25800
C776        C  0.10787463  0.75170940  0.74621965     0.02800
C777        C  0.11808958  0.77082705  0.75952787     0.27600
C778        C  0.08820818  0.78479362  0.76511243    -0.24900
N779        N  0.99823950  0.75522936  0.73666167    -0.82300
H780        H  0.06024633  0.73256273  0.72769834     0.13400
C781        C  0.13737308  0.73571164  0.74175870     0.02800
N782        N  0.15852071  0.77583843  0.76777411    -0.80900
H783        H  0.09615294  0.79943446  0.77546496     0.18300
C784        C  0.16905483  0.73841667  0.72092148    -0.25700
C785        C  0.19323106  0.72223902  0.71288589     0.36300
C786        C  0.18597140  0.70308817  0.72597859    -0.19700
C787        C  0.15607452  0.70087952  0.74840760    -0.25000
C788        C  0.13187688  0.71699383  0.75650592     0.27700
H789        H  0.17386287  0.75282300  0.70978694     0.13400
N790        N  0.22459669  0.72512600  0.69088236    -0.82300
H791        H  0.15020277  0.68625033  0.75857033     0.18300
N792        N  0.10077790  0.71427307  0.77896937    -0.80900
H793        H  0.21222731  0.72993239  0.67069686     0.33900
H794        H  0.24401651  0.73673566  0.69901911     0.38400
H795        H  0.10034068  0.69960646  0.78750773     0.33900
H796        H  0.10747990  0.72417931  0.79728544     0.30600
H797        H  0.16111687  0.79048877  0.77726644     0.33900
H798        H  0.16611348  0.76596539  0.78484973     0.30600
H799        H  0.49713769  0.75352415  0.71045110     0.38400
H800        H  0.99040948  0.74190999  0.74816283     0.33900
C801        C  0.17983295  0.63305703  0.72127972    -0.19800
C802        C  0.18282686  0.61411902  0.70605879     0.36400
C803        C  0.15569734  0.59808643  0.71333904    -0.25800
C804        C  0.12535130  0.60082695  0.73499552     0.02800
C805        C  0.12315804  0.61952232  0.75078783     0.27600
C806        C  0.15051269  0.63533108  0.74404483    -0.24900
N807        N  0.21210300  0.61154954  0.68235718    -0.82300
H808        H  0.15690655  0.58371843  0.70103005     0.13400
C809        C  0.09307863  0.58509957  0.73760460     0.02800
N810        N  0.09220203  0.62312641  0.77264418    -0.80900
H811        H  0.14728025  0.64986187  0.75545990     0.18300
C812        C  0.09440461  0.57018336  0.75975769    -0.25700
C813        C  0.06459577  0.55461451  0.76130113     0.36300
C814        C  0.03329548  0.55393769  0.74019955    -0.19700
C815        C  0.03169117  0.56928602  0.71865411    -0.25000
C816        C  0.06112710  0.58487542  0.71736683     0.27700
H817        H  0.11892867  0.57044696  0.77550128     0.13400
N818        N  0.06707336  0.53914314  0.78347298    -0.82300
H819        H  0.00756631  0.56912079  0.70255148     0.18300
N820        N  0.05873185  0.60046257  0.69533989    -0.80900
H821        H  0.09404903  0.53215668  0.78012630     0.33900
H822        H  0.06743341  0.54612981  0.80508319     0.38400
H823        H  0.05792169  0.59358477  0.67366003     0.33900
H824        H  0.03199097  0.60761417  0.69900875     0.30600
H825        H  0.09363561  0.61243152  0.78977047     0.33900
H826        H  0.06486363  0.62095555  0.76180733     0.30600
H827        H  0.24006577  0.61341754  0.69222738     0.38400
H828        H  0.21008242  0.59677618  0.67329192     0.33900
C829        C  0.49141362  0.23658614  0.77157526    -0.19800
C830        C  0.01542198  0.23767586  0.74530103     0.36400
C831        C  0.04848893  0.25091639  0.73970124    -0.25800
C832        C  0.06118486  0.26540411  0.76170801     0.02800
C833        C  0.53697607  0.26372329  0.79048913     0.27600
C834        C  0.50437505  0.25012830  0.79487627    -0.24900
N835        N  0.00409905  0.22253582  0.72285040    -0.82300
H836        H  0.06451048  0.24977454  0.71820596     0.13400
C837        C  0.09526178  0.27977748  0.75516317     0.02800
N838        N  0.54862064  0.27769198  0.81451277    -0.80900
H839        H  0.48873351  0.25039195  0.81660294     0.18300
C840        C  0.08995762  0.29493358  0.73400519    -0.25700
C841        C  0.11632459  0.31194709  0.73250151     0.36300
C842        C  0.14883681  0.31395232  0.75244377    -0.19700
C843        C  0.15640849  0.29766610  0.77128738    -0.25000
C844        C  0.13043012  0.28045586  0.77253645     0.27700
H845        H  0.06349564  0.29435909  0.72018464     0.13400
N846        N  0.10790599  0.32779745  0.71232835    -0.82300
H847        H  0.18170509  0.29878661  0.78631657     0.18300
N848        N  0.13991320  0.26440410  0.79244289    -0.80900
H849        H  0.07928847  0.33243577  0.71745939     0.33900
H850        H  0.10782642  0.32178428  0.69009193     0.38400
H851        H  0.16690941  0.25881611  0.78482390     0.33900
H852        H  0.11913590  0.25223699  0.79071544     0.30600
H853        H  0.52438011  0.28643085  0.82013347     0.33900
H854        H  0.05666372  0.27552308  0.83187453     0.30600
H855        H  0.52451074  0.21419458  0.71364772     0.38400
H856        H  0.99772909  0.22986449  0.70272556     0.33900
C857        C  0.04211220  0.46881932  0.73085923    -0.19800
C858        C  0.05685740  0.46086951  0.75805067     0.36400
C859        C  0.08709032  0.44701090  0.75669259    -0.25800
C860        C  0.10373339  0.44076701  0.72885171     0.02800
C861        C  0.09059595  0.44920169  0.70166821     0.27600
C862        C  0.05991044  0.46310250  0.70291532    -0.24900
N863        N  0.55755215  0.47352978  0.78495527    -0.82300
H864        H  0.09652999  0.44043571  0.77767838     0.13400
C865        C  0.13049756  0.42340799  0.72884020     0.02800
N866        N  0.10813533  0.44339977  0.67294103    -0.80900
H867        H  0.04955497  0.46925228  0.68192150     0.18300
C868        C  0.11852648  0.40556295  0.71311239    -0.25700
C869        C  0.13592849  0.38716248  0.71878080     0.36300
C870        C  0.16635178  0.38637525  0.74047068    -0.19700
C871        C  0.18088620  0.40466195  0.75411385    -0.25000
C872        C  0.16343149  0.42318565  0.74837653     0.27700
H873        H  0.09328297  0.40551218  0.69806975     0.13400
N874        N  0.12043311  0.36916776  0.70385466    -0.82300
H875        H  0.20462329  0.40429443  0.77047620     0.18300
N876        N  0.17777781  0.44161402  0.76330354    -0.80900
H877        H  0.08998122  0.36787063  0.70866395     0.33900
H878        H  0.12397597  0.37097598  0.68034891     0.38400
H879        H  0.20197233  0.43886860  0.77705297     0.33900
H880        H  0.18836431  0.45143320  0.74636588     0.30600
H881        H  0.09530870  0.45094802  0.65510882     0.33900
H882        H  0.13809509  0.44822466  0.67335850     0.30600
H883        H  0.54888004  0.46172117  0.79944174     0.38400
H884        H  0.58256133  0.48117720  0.79423742     0.33900
N885        N  0.67967008  0.34900482  0.24981252    -0.03400
C886        C  0.66888938  0.33468414  0.27069817    -0.00800
C887        C  0.66287585  0.34394482  0.29881701    -0.23700
C888        C  0.66683733  0.36447298  0.29469410    -0.23900
C889        C  0.67528822  0.36737924  0.26415642    -0.00900
H890        H  0.65100042  0.33675085  0.31912831     0.12800
H891        H  0.65877687  0.37598457  0.31129467     0.12900
N892        N  0.71370687  0.67128004  0.23007381    -0.03400
C893        C  0.70361660  0.65500497  0.21173798    -0.00800
C894        C  0.69790633  0.66158142  0.18246242    -0.23700
C895        C  0.70028789  0.68240699  0.18373552    -0.23900
C896        C  0.70725313  0.68807995  0.21375631    -0.00900
H897        H  0.68567368  0.65260394  0.16361470     0.12800
H898        H  0.69002196  0.69206398  0.16612416     0.12900
N899        N  0.72722942  0.67097385  0.26073586    -0.03400
C900        C  0.73601980  0.68737886  0.27923975    -0.00800
C901        C  0.74170172  0.68090568  0.30860003    -0.23700
C902        C  0.74007823  0.66008360  0.30745501    -0.23900
C903        C  0.73343899  0.65430036  0.27746586    -0.00900
H904        H  0.75287401  0.69007154  0.32762949     0.12800
H905        H  0.74931179  0.65044479  0.32545278     0.12900
O906        O  0.99129510  0.48816321  0.25710006    -0.74400
O907        O  0.91043640  0.52661413  0.26260534    -0.74400
O908        O  0.91062058  0.48577538  0.25617650    -0.74500
O909        O  0.99096531  0.52889370  0.26299739    -0.74500
O910        O  0.99105890  0.53162548  0.21249828    -0.74400
O911        O  0.91283061  0.48814432  0.20565757    -0.74400
O912        O  0.91046416  0.52913748  0.21211939    -0.74400
O913        O  0.99383608  0.49080476  0.20671028    -0.74500
Ni914      Ni  0.95071003  0.50723881  0.26146608     1.25400
Ni915      Ni  0.95204203  0.50999285  0.20742267     1.25400
C916        C  0.00679280  0.48337545  0.23132904     0.87800
C917        C  0.89725789  0.53446824  0.23856426     0.87700
C918        C  0.89838386  0.47986461  0.22973736     0.87800
C919        C  0.00433680  0.53733992  0.23865846     0.87900
N920        N  0.69607789  0.34526278  0.22017669    -0.03400
C921        C  0.70724550  0.35932636  0.19912630    -0.00800
C922        C  0.71451650  0.34959975  0.17153582    -0.23700
C923        C  0.71185729  0.32912571  0.17666398    -0.23900
C924        C  0.70297471  0.32676679  0.20726811    -0.00900
H925        H  0.72787717  0.35644390  0.15145726     0.12800
H926        H  0.72282789  0.31761358  0.16119717     0.12900
C927        C  0.92260208  0.19999922  0.31120036     0.86500
C928        C  0.95930231  0.21460448  0.30835495    -0.53700
C929        C  0.96277195  0.22425645  0.28112319     0.09500
C930        C  0.92823643  0.21878827  0.25929116     0.20400
C931        C  0.88746827  0.21357051  0.30489765    -0.54400
C932        C  0.89035908  0.22344537  0.27777239     0.09600
C933        C  0.92441413  0.18584926  0.28306725    -0.54000
C934        C  0.92739880  0.19559614  0.25609615     0.10100
H935        H  0.98103245  0.21689191  0.32630211     0.14700
H936        H  0.93062304  0.22635950  0.23698689     0.00400
H937        H  0.86287828  0.21602085  0.32037425     0.15000
H938        H  0.92300767  0.16941563  0.28436412     0.14700
C939        C  0.98089019  0.82328551  0.29659825     0.86500
C940        C  0.94376709  0.80902602  0.29261145    -0.53700
C941        C  0.94322030  0.79787501  0.26619421     0.09500
C942        C  0.98014597  0.80180021  0.24569878     0.20400
C943        C  0.51336501  0.80623410  0.29155814    -0.54400
C944        C  0.51369086  0.79540667  0.26460162     0.09600
C945        C  0.98308526  0.83596816  0.26777133    -0.54000
C946        C  0.98272548  0.82494185  0.24104654     0.10100
H947        H  0.92092722  0.80638448  0.30982915     0.14700
H948        H  0.97978153  0.79297843  0.22398658     0.00400
H949        H  0.53506156  0.80440020  0.30924804     0.15000
H950        H  0.48442680  0.85042040  0.26797078     0.14700
C951        C  0.93618566  0.11851250  0.50428511     0.80300
N952        N  0.92684250  0.12721401  0.03128381    -0.78000
C953        C  0.92976530  0.11684223  0.05739231     0.82700
N954        N  0.93551342  0.09663602  0.05591406    -0.78000
C955        C  0.93829673  0.08683647  0.02842630     0.82800
N956        N  0.94152517  0.09817293  0.50259069    -0.79700
C957        C  0.48862386  0.90404632  0.49296742     0.80300
N958        N  0.48293357  0.92429432  0.49411065    -0.78000
C959        C  0.97621823  0.93568713  0.02144273     0.82700
N960        N  0.49054808  0.92547962  0.04709187    -0.78000
C961        C  0.49217213  0.90492028  0.04597515     0.82800
N962        N  0.49296049  0.89532206  0.01829344    -0.79700
C963        C  0.97191811  0.95801063  0.02282486    -0.19800
C964        C  0.94685922  0.96723905  0.04454925     0.36400
C965        C  0.94324196  0.98835985  0.04482685    -0.25800
C966        C  0.96442322  0.00056959  0.02392924     0.02800
C967        C  0.99440484  0.99194022  0.50188932     0.27600
C968        C  0.99794631  0.97078580  0.50224662    -0.24900
N969        N  0.92408591  0.95519779  0.06581256    -0.82300
H970        H  0.92342433  0.99525993  0.06126138     0.13400
C971        C  0.95846496  0.02271625  0.02430919     0.02800
N972        N  0.01478839  0.00389909  0.47904310    -0.80900
H973        H  0.51456717  0.96237767  0.48588398     0.18300
C974        C  0.97903404  0.03533325  0.04541219    -0.25700
C975        C  0.97313169  0.05631776  0.04708649     0.36300
C976        C  0.94623504  0.06486087  0.02701250    -0.19700
C977        C  0.92585635  0.05215682  0.00581236    -0.25000
C978        C  0.93117908  0.03111925  0.00461810     0.27700
H979        H  0.99963549  0.02873467  0.06069754     0.13400
N980        N  0.99460239  0.06897337  0.06890058    -0.82300
H981        H  0.90436184  0.05876142  0.49751053     0.18300
N982        N  0.90613847  0.01812665  0.49243419    -0.80900
H983        H  0.01281603  0.06032230  0.08207971     0.33900
H984        H  0.01342569  0.07899032  0.05674184     0.38400
H985        H  0.88397263  0.02635063  0.48263832     0.33900
H986        H  0.92146108  0.01125626  0.47443764     0.30600
H987        H  0.52985815  0.99413423  0.46744198     0.33900
H988        H  0.99341640  0.01027069  0.46564084     0.30600
H989        H  0.89405605  0.95776522  0.06267892     0.38400
H990        H  0.93164976  0.96024833  0.08781469     0.33900
C991        C  0.98213825  0.83665737  0.32576042    -0.19800
C992        C  0.51659464  0.84563193  0.33190267     0.36400
C993        C  0.51926652  0.85690944  0.35941477    -0.25800
C994        C  0.48782527  0.85655152  0.38058570     0.02800
C995        C  0.94827328  0.85151090  0.37038404     0.27600
C996        C  0.94740115  0.83973465  0.34334105    -0.24900
N997        N  0.54925837  0.84669386  0.31069087    -0.82300
H998        H  0.54584127  0.86625669  0.36405034     0.13400
C999        C  0.49036556  0.86938648  0.40876277     0.02800
N1000       N  0.91260719  0.85405733  0.38813412    -0.80900
H1001       H  0.91891945  0.83353509  0.33602888     0.18300
C1002       C  0.97041529  0.89194693  0.41082204    -0.25700
C1003       C  0.97016739  0.90314514  0.43840492     0.36300
C1004       C  0.48990351  0.89282593  0.46342023    -0.19700
C1005       C  0.51725590  0.87755806  0.45897626    -0.25000
C1006       C  0.51788088  0.86583679  0.43177849     0.27700
H1007       H  0.95763891  0.89818361  0.39072039     0.13400
N1008       N  0.95233306  0.92242942  0.43948442    -0.82300
H1009       H  0.53802295  0.87470707  0.47686126     0.18300
N1010       N  0.54578855  0.85015446  0.42764966    -0.80900
H1011       H  0.96711042  0.93178844  0.42367103     0.33900
H1012       H  0.92278840  0.92027786  0.43273597     0.38400
H1013       H  0.56408620  0.84957606  0.44663419     0.33900
H1014       H  0.52962473  0.83627560  0.42638166     0.30600
H1015       H  0.88835692  0.84638276  0.37780813     0.33900
H1016       H  0.91633971  0.84723969  0.40912849     0.30600
H1017       H  0.57445805  0.84196614  0.32168080     0.38400
H1018       H  0.55443154  0.86184663  0.30477867     0.33900
C1019       C  0.98579356  0.83490156  0.21081701    -0.19800
C1020       C  0.96189304  0.82842210  0.18597657     0.36400
C1021       C  0.96381282  0.83925928  0.15875311    -0.25800
C1022       C  0.49282443  0.85590989  0.15506153     0.02800
C1023       C  0.51762099  0.86131316  0.17987071     0.27600
C1024       C  0.51420946  0.85020630  0.20689093    -0.24900
N1025       N  0.93425640  0.81145206  0.18860842    -0.82300
H1026       H  0.94452113  0.83448475  0.14012767     0.13400
C1027       C  0.49317327  0.86831536  0.12702243     0.02800
N1028       N  0.54616344  0.87806742  0.17749369    -0.80900
H1029       H  0.53308446  0.85455385  0.22594772     0.18300
C1030       C  0.97544007  0.88871331  0.12994596    -0.25700
C1031       C  0.97313131  0.90065513  0.10400024     0.36300
C1032       C  0.49242503  0.89274319  0.07440191    -0.19700
C1033       C  0.49979472  0.87190215  0.07203636    -0.25000
C1034       C  0.50024321  0.85966395  0.09790954     0.27700
H1035       H  0.96717623  0.89504677  0.15200058     0.13400
N1036       N  0.95966276  0.92083854  0.10742006    -0.82300
H1037       H  0.50553759  0.86502619  0.04988265     0.18300
N1038       N  0.50813625  0.83850107  0.09474287    -0.80900
H1039       H  0.97863375  0.92891549  0.12244139     0.33900
H1040       H  0.93126140  0.92002971  0.11730154     0.38400
H1041       H  0.51240281  0.83442792  0.07181502     0.33900
H1042       H  0.53486052  0.83623083  0.10571503     0.30600
H1043       H  0.56206342  0.88010733  0.19770649     0.33900
H1044       H  0.56671290  0.87431576  0.16046868     0.30600
H1045       H  0.90588789  0.81640034  0.18429325     0.38400
H1046       H  0.94116248  0.80075206  0.17167808     0.33900
C1047       C  0.93162417  0.13052358  0.47618602    -0.19800
C1048       C  0.93378857  0.15210484  0.47677553     0.36400
C1049       C  0.92872736  0.16259058  0.44970158    -0.25800
C1050       C  0.92258677  0.15221277  0.42197230     0.02800
C1051       C  0.92016863  0.13088586  0.42110489     0.27600
C1052       C  0.92466486  0.12024570  0.44817907    -0.24900
N1053       N  0.94200397  0.16343432  0.50451956    -0.82300
H1054       H  0.93084582  0.17902360  0.44999111     0.13400
C1055       C  0.92109160  0.16401665  0.39378322     0.02800
N1056       N  0.91322890  0.12017085  0.39267946    -0.80900
H1057       H  0.92259803  0.10382939  0.44731413     0.18300
C1058       C  0.95349648  0.16402169  0.37362867    -0.25700
C1059       C  0.95424853  0.17571932  0.34735453     0.36300
C1060       C  0.92191733  0.18787634  0.34073315    -0.19700
C1061       C  0.88921098  0.18759725  0.36123486    -0.25000
C1062       C  0.88858292  0.17581341  0.38760564     0.27700
H1063       H  0.97863532  0.15499259  0.37848312     0.13400
N1064       N  0.98807960  0.17513389  0.32728741    -0.82300
H1065       H  0.86352020  0.19614709  0.35703556     0.18300
N1066       N  0.85498477  0.17568017  0.40814253    -0.80900
H1067       H  0.99126210  0.16011209  0.31998412     0.33900
H1068       H  0.01327558  0.17976996  0.33969594     0.38400
H1069       H  0.83346624  0.18523561  0.40052318     0.33900
H1070       H  0.84198870  0.16099858  0.40778508     0.30600
H1071       H  0.91239725  0.10450701  0.39584878     0.33900
H1072       H  0.88506566  0.12369132  0.38526103     0.30600
H1073       H  0.94125333  0.17324699  0.00404842     0.38400
H1074       H  0.94086456  0.17901870  0.50108919     0.33900
C1075       C  0.92893652  0.12792179  0.08694818    -0.19800
C1076       C  0.90454989  0.12117060  0.11133238     0.36400
C1077       C  0.90375609  0.13258282  0.13871932    -0.25800
C1078       C  0.92726948  0.15053899  0.14210680     0.02800
C1079       C  0.95170508  0.15732876  0.11779341     0.27600
C1080       C  0.95208551  0.14601618  0.09032798    -0.24900
N1081       N  0.87974212  0.10309456  0.10802691    -0.82300
H1082       H  0.88482268  0.12741690  0.15740340     0.13400
C1083       C  0.92664740  0.16208460  0.17131632     0.02800
N1084       N  0.97612633  0.17563121  0.12123640    -0.80900
H1085       H  0.97076603  0.15123611  0.07153237     0.18300
C1086       C  0.95779612  0.16021835  0.19175067    -0.25700
C1087       C  0.95875095  0.17129395  0.21936043     0.36300
C1088       C  0.92828478  0.18452497  0.22654408    -0.19700
C1089       C  0.89743902  0.18666999  0.20592840    -0.25000
C1090       C  0.89621686  0.17545558  0.17830602     0.27700
H1091       H  0.98145917  0.15014229  0.18618908     0.13400
N1092       N  0.99100128  0.16937214  0.23986725    -0.82300
H1093       H  0.87400220  0.19684730  0.21166191     0.18300
N1094       N  0.86426275  0.17749063  0.15739208    -0.80900
H1095       H  0.01740606  0.17330959  0.22824476     0.33900
H1096       H  0.99183582  0.15414711  0.24578343     0.38400
H1097       H  0.84410745  0.18778155  0.16610062     0.33900
H1098       H  0.87635219  0.18373119  0.13744452     0.30600
H1099       H  0.99272352  0.17841301  0.10134918     0.33900
H1100       H  0.95725608  0.18767885  0.12412374     0.30600
H1101       H  0.85029039  0.10694187  0.11168861     0.38400
H1102       H  0.88712153  0.09314546  0.12505925     0.33900
C1103       C  0.85984483  0.23758765  0.26786092    -0.19800
C1104       C  0.87073975  0.25622047  0.25429640     0.36400
C1105       C  0.84135182  0.26942989  0.24622240    -0.25800
C1106       C  0.80095206  0.26487386  0.25231458     0.02800
C1107       C  0.78977419  0.24623010  0.26583432     0.27600
C1108       C  0.81926534  0.23271823  0.27317327    -0.24900
N1109       N  0.91168251  0.26229784  0.24988044    -0.82300
H1110       H  0.85029930  0.28361697  0.23562018     0.13400
C1111       C  0.77127394  0.28008310  0.24479738     0.02800
N1112       N  0.74869684  0.24127227  0.27261207    -0.80900
H1113       H  0.81052019  0.21838363  0.28338797     0.18300
C1114       C  0.73951180  0.27467069  0.22540649    -0.25700
C1115       C  0.71408792  0.28926022  0.21491808     0.36300
C1116       C  0.72094715  0.30992573  0.22364022    -0.19700
C1117       C  0.75108061  0.31501768  0.24462194    -0.25000
C1118       C  0.77604418  0.30036278  0.25542291     0.27700
H1119       H  0.73526562  0.25909485  0.21740686     0.13400
N1120       N  0.68234500  0.28260056  0.19500520    -0.82300
H1121       H  0.75656341  0.33071336  0.25148325     0.18300
N1122       N  0.80707856  0.30610068  0.27649154    -0.80900
H1123       H  0.66378873  0.27241683  0.20709410     0.33900
H1124       H  0.66473325  0.29455697  0.18952825     0.38400
H1125       H  0.80698386  0.32161459  0.28178526     0.33900
H1126       H  0.80084542  0.29851300  0.29678346     0.30600
H1127       H  0.74545574  0.22702288  0.28251698     0.33900
H1128       H  0.73921378  0.25180519  0.28895844     0.30600
H1129       H  0.91732844  0.27592401  0.26195267     0.38400
H1130       H  0.91645729  0.26499869  0.22670105     0.33900
C1131       C  0.72944051  0.37876085  0.20645397    -0.19800
C1132       C  0.72682133  0.39581297  0.18798205     0.36400
C1133       C  0.75244851  0.41290664  0.19290413    -0.25800
C1134       C  0.78105099  0.41323453  0.21592012     0.02800
C1135       C  0.78298173  0.39640935  0.23505289     0.27600
C1136       C  0.75725134  0.37936175  0.23006521    -0.24900
N1137       N  0.69829059  0.39574121  0.16409874    -0.82300
H1138       H  0.75046990  0.42586567  0.17835310     0.13400
C1139       C  0.81004186  0.43080415  0.21890326     0.02800
N1140       N  0.81190343  0.39644420  0.25884760    -0.80900
H1141       H  0.75984058  0.36622124  0.24407196     0.18300
C1142       C  0.81272101  0.44175309  0.24660842    -0.25700
C1143       C  0.84110330  0.45779114  0.25067254     0.36300
C1144       C  0.86742874  0.46316924  0.22656593    -0.19700
C1145       C  0.86407516  0.45242428  0.19860562    -0.25000
C1146       C  0.83598097  0.43621339  0.19461567     0.27700
H1147       H  0.79263680  0.43779298  0.26525451     0.13400
N1148       N  0.84251111  0.46875235  0.27917988    -0.82300
H1149       H  0.88407757  0.45636611  0.17991917     0.18300
N1150       N  0.83420619  0.42497060  0.16619141    -0.80900
H1151       H  0.81472110  0.47476150  0.28323408     0.33900
H1152       H  0.84752688  0.45847439  0.29635809     0.38400
H1153       H  0.85511278  0.43093466  0.15061527     0.33900
H1154       H  0.84218466  0.41018161  0.17043493     0.30600
H1155       H  0.80915545  0.38300601  0.27103282     0.33900
H1156       H  0.84002558  0.39677716  0.24850075     0.30600
H1157       H  0.68005020  0.40793554  0.16808911     0.38400
H1158       H  0.71358081  0.39815868  0.14352194     0.33900
C1159       C  0.75658354  0.70656434  0.26902264    -0.19800
C1160       C  0.75333862  0.72488470  0.28585349     0.36400
C1161       C  0.78039893  0.74130721  0.28042903    -0.25800
C1162       C  0.81063180  0.73969428  0.25835022     0.02800
C1163       C  0.81200917  0.72205094  0.24003685     0.27600
C1164       C  0.78519614  0.70565891  0.24550983    -0.24900
N1165       N  0.72358629  0.72654858  0.30924796    -0.82300
H1166       H  0.77925057  0.75488342  0.29467629     0.13400
C1167       C  0.84485165  0.75454157  0.25854493     0.02800
N1168       N  0.84198816  0.72040005  0.21681435    -0.80900
H1169       H  0.78837428  0.69180512  0.23235321     0.18300
C1170       C  0.87720640  0.75046927  0.27673185    -0.25700
C1171       C  0.91067510  0.76373853  0.27834743     0.36300
C1172       C  0.91195245  0.78168965  0.26110293    -0.19700
C1173       C  0.87952040  0.78572198  0.24273464    -0.25000
C1174       C  0.84597821  0.77219848  0.24109836     0.27700
H1175       H  0.87621582  0.73685726  0.29016198     0.13400
N1176       N  0.94182809  0.75881459  0.29866519    -0.82300
H1177       H  0.87965004  0.79983441  0.23066385     0.18300
N1178       N  0.81275257  0.77655137  0.22254267    -0.80900
H1179       H  0.95215938  0.74473859  0.29173509     0.33900
H1180       H  0.96613029  0.76908696  0.29731322     0.38400
H1181       H  0.81807926  0.79028330  0.21145610     0.33900
H1182       H  0.81034130  0.76526751  0.20549892     0.31400
H1183       H  0.85876470  0.70794169  0.22157746     0.33900
H1184       H  0.82780843  0.71746945  0.19603230     0.30600
H1185       H  0.70602761  0.73861193  0.30400259     0.38400
H1186       H  0.73782474  0.73012624  0.32982190     0.33900
C1187       C  0.74827693  0.63479929  0.26537282    -0.19800
C1188       C  0.77940434  0.63438394  0.24354235     0.36400
C1189       C  0.79698779  0.61604259  0.23609782    -0.25800
C1190       C  0.78495440  0.59812451  0.25073187     0.02800
C1191       C  0.75340014  0.59836638  0.27204257     0.27600
C1192       C  0.73519972  0.61663331  0.27910409    -0.24900
N1193       N  0.79497606  0.65271238  0.23023256    -0.82300
H1194       H  0.82187160  0.61605210  0.22020281     0.13400
C1195       C  0.81035447  0.58045451  0.24759336     0.02800
N1196       N  0.74073706  0.58019604  0.28727549    -0.80900
H1197       H  0.71169330  0.61678582  0.29618241     0.18300
C1198       C  0.83485332  0.57636753  0.27195100    -0.25700
C1199       C  0.86305352  0.56150284  0.26937741     0.36300
C1200       C  0.86690770  0.55012256  0.24187129    -0.19700
C1201       C  0.84176738  0.55403698  0.21749138    -0.25000
C1202       C  0.81338312  0.56909692  0.22016039     0.27700
H1203       H  0.83301163  0.58531464  0.29289425     0.13400
N1204       N  0.88873516  0.55863011  0.29452931    -0.82300
H1205       H  0.84422414  0.54534807  0.19638192     0.18300
N1206       N  0.78785457  0.57302477  0.19519904    -0.80900
H1207       H  0.90410494  0.57240665  0.29938832     0.33900
H1208       H  0.87109865  0.55483315  0.31352027     0.38400
H1209       H  0.79364293  0.56332313  0.17668734     0.33900
H1210       H  0.75864067  0.56956226  0.20228507     0.30600
H1211       H  0.74397695  0.58278523  0.31072074     0.33900
H1212       H  0.71053523  0.57738690  0.28297644     0.30600
H1213       H  0.82505858  0.65451420  0.23562107     0.38400
H1214       H  0.79279294  0.65111409  0.20654892     0.33900
C1215       C  0.54470283  0.78050284  0.25730838    -0.19800
C1216       C  0.53554177  0.76161365  0.24274568     0.36400
C1217       C  0.56546283  0.74778472  0.23773796    -0.25800
C1218       C  0.60448337  0.75221797  0.24731023     0.02800
C1219       C  0.61401405  0.77106425  0.26160719     0.27600
C1220       C  0.58414918  0.78505608  0.26625445    -0.24900
N1221       N  0.49579501  0.75599966  0.23384148    -0.82300
H1222       H  0.55803999  0.73331374  0.22661924     0.13400
C1223       C  0.63466936  0.73675207  0.24243131     0.02800
N1224       N  0.65379886  0.77577256  0.27174664    -0.80900
H1225       H  0.59173428  0.79958317  0.27709256     0.18300
C1226       C  0.66764812  0.74090120  0.22334942    -0.25700
C1227       C  0.69410428  0.72578314  0.21535902     0.36300
C1228       C  0.68721483  0.70597945  0.22670145    -0.19700
C1229       C  0.65558249  0.70231984  0.24730697    -0.25000
C1230       C  0.62937425  0.71747387  0.25535875     0.27700
H1231       H  0.67206592  0.75581305  0.21369143     0.13400
N1232       N  0.72684482  0.73097185  0.19525373    -0.82300
H1233       H  0.64998375  0.68725423  0.25600913     0.18300
N1234       N  0.59663964  0.71321834  0.27591793    -0.80900
H1235       H  0.74445450  0.74225531  0.20627209     0.33900
H1236       H  0.74500475  0.71876114  0.19155345     0.38400
H1237       H  0.59663809  0.69822856  0.28312985     0.33900
H1238       H  0.60095872  0.72245324  0.29535326     0.30600
H1239       H  0.65596661  0.79028700  0.28174693     0.33900
H1240       H  0.65983663  0.76562702  0.28886948     0.30600
H1241       H  0.99865348  0.75563611  0.21129529     0.38400
H1242       H  0.48718817  0.74246864  0.24449722     0.33900
C1243       C  0.68176297  0.63627298  0.22231177    -0.19800
C1244       C  0.68394856  0.61769068  0.20591924     0.36400
C1245       C  0.65760374  0.60135369  0.21333689    -0.25800
C1246       C  0.62895958  0.60327835  0.23655121     0.02800
C1247       C  0.62779543  0.62153838  0.25365943     0.27600
C1248       C  0.65406750  0.63777209  0.24645404    -0.24900
N1249       N  0.71162312  0.61578349  0.18093767    -0.82300
H1250       H  0.65807572  0.58735265  0.20001762     0.13400
C1251       C  0.59686426  0.58735014  0.23920930     0.02800
N1252       N  0.59891306  0.62429812  0.27744046    -0.80900
H1253       H  0.65142647  0.65195192  0.25893636     0.18300
C1254       C  0.59779038  0.57264362  0.26176694    -0.25700
C1255       C  0.56827604  0.55685562  0.26308490     0.36300
C1256       C  0.53728607  0.55592086  0.24167885    -0.19700
C1257       C  0.53631060  0.57094479  0.21957632    -0.25000
C1258       C  0.56569824  0.58655958  0.21821922     0.27700
H1259       H  0.62193268  0.57315062  0.27786527     0.13400
N1260       N  0.57093173  0.54135288  0.28518870    -0.82300
H1261       H  0.51272731  0.57048262  0.20299085     0.18300
N1262       N  0.56409063  0.60158439  0.19525281    -0.80900
H1263       H  0.59812079  0.53455284  0.28192677     0.33900
H1264       H  0.57096850  0.54827659  0.30683942     0.38400
H1265       H  0.56439981  0.59419229  0.17394425     0.33900
H1266       H  0.53709836  0.60867359  0.19774118     0.30600
H1267       H  0.60250150  0.61323631  0.29374382     0.33900
H1268       H  0.57061831  0.62207553  0.26814934     0.30600
H1269       H  0.74023069  0.61747526  0.18972094     0.38400
H1270       H  0.70909910  0.60124009  0.17105738     0.33900
C1271       C  0.99649904  0.23888372  0.27418233    -0.19800
C1272       C  0.51951304  0.23725748  0.24802267     0.36400
C1273       C  0.55301471  0.25064776  0.24493531    -0.25800
C1274       C  0.56466015  0.26400816  0.26886647     0.02800
C1275       C  0.04006355  0.26743281  0.29105001     0.27600
C1276       C  0.00785469  0.25368035  0.29621927    -0.24900
N1277       N  0.50912469  0.22332018  0.22367464    -0.82300
H1278       H  0.56999929  0.25062484  0.22379576     0.13400
C1279       C  0.59785559  0.27929838  0.26442865     0.02800
N1280       N  0.04990636  0.28284464  0.31351231    -0.80900
H1281       H  0.99128549  0.25475953  0.31747987     0.18300
C1282       C  0.59371791  0.29419554  0.24267255    -0.25700
C1283       C  0.61879367  0.31172582  0.24257825     0.36300
C1284       C  0.64950705  0.31431564  0.26409392    -0.19700
C1285       C  0.65601176  0.29837687  0.28391616    -0.25000
C1286       C  0.63046842  0.28093383  0.28423547     0.27700
H1287       H  0.56886607  0.29302234  0.22721505     0.13400
N1288       N  0.61075407  0.32746773  0.22206703    -0.82300
H1289       H  0.67962756  0.30000710  0.30042745     0.18300
N1290       N  0.63679618  0.26524720  0.30542969    -0.80900
H1291       H  0.58152082  0.33159952  0.22598023     0.33900
H1292       H  0.61263570  0.32156437  0.19982437     0.38400
H1293       H  0.63645281  0.27166836  0.32741628     0.33900
H1294       H  0.66510740  0.25989880  0.30124830     0.30600
H1295       H  0.02500175  0.29149401  0.31719253     0.33900
H1296       H  0.55592378  0.27057432  0.33979677     0.30600
H1297       H  0.03288573  0.21408789  0.21988693     0.38400
H1298       H  0.50411552  0.23169239  0.20425173     0.33900
C1299       C  0.54713753  0.47110591  0.23464863    -0.19800
C1300       C  0.56224467  0.46418960  0.26240758     0.36400
C1301       C  0.59183383  0.44994786  0.26203880    -0.25800
C1302       C  0.60767391  0.44241594  0.23462769     0.02800
C1303       C  0.59495072  0.45023911  0.20687330     0.27600
C1304       C  0.56469959  0.46440061  0.20712712    -0.24900
N1305       N  0.04077372  0.46736068  0.28684806    -0.82300
H1306       H  0.60123150  0.44405004  0.28351516     0.13400
C1307       C  0.63278706  0.42439845  0.23580262     0.02800
N1308       N  0.61243496  0.44353843  0.17858345    -0.80900
H1309       H  0.55434747  0.46989763  0.18569516     0.18300
C1310       C  0.61909005  0.40633646  0.22134390    -0.25700
C1311       C  0.63465053  0.38767382  0.22841557     0.36300
C1312       C  0.66515975  0.38684938  0.24999462    -0.19700
C1313       C  0.68113909  0.40516509  0.26257048    -0.25000
C1314       C  0.66554159  0.42392920  0.25549715     0.27700
H1315       H  0.59383091  0.40643098  0.20633532     0.13400
N1316       N  0.61713212  0.36951995  0.21523506    -0.82300
H1317       H  0.70472453  0.40470038  0.27904577     0.18300
N1318       N  0.68165355  0.44241704  0.26921089    -0.80900
H1319       H  0.58683208  0.36899558  0.22072579     0.33900
H1320       H  0.62004007  0.37038307  0.19154171     0.38400
H1321       H  0.70537520  0.43945922  0.28331980     0.33900
H1322       H  0.69335496  0.45141074  0.25164494     0.30600
H1323       H  0.60000386  0.45074443  0.16024254     0.33900
H1324       H  0.64252295  0.44812309  0.17887453     0.30600
H1325       H  0.03007637  0.45431506  0.29791780     0.38400
H1326       H  0.06439053  0.47383049  0.29946052     0.33900
N1327       N  0.67669553  0.34819044  0.74509782    -0.03400
C1328       C  0.66278013  0.33406416  0.76534145    -0.00800
C1329       C  0.65533301  0.34340378  0.79317518    -0.23700
C1330       C  0.66202805  0.36386977  0.78943821    -0.23900
C1331       C  0.67335050  0.36663616  0.75937245    -0.00900
H1332       H  0.64111305  0.33642780  0.81282819     0.12800
H1333       H  0.65377962  0.37557366  0.80566313     0.12900
N1334       N  0.71054791  0.67073532  0.72893990    -0.03400
C1335       C  0.69999031  0.65489725  0.70992437    -0.00800
C1336       C  0.69344008  0.66219673  0.68119044    -0.23700
C1337       C  0.69593958  0.68301093  0.68357707    -0.23900
C1338       C  0.70391116  0.68797124  0.71370096    -0.00900
H1339       H  0.68068578  0.65365566  0.66210558     0.12800
H1340       H  0.68533378  0.69312667  0.66670805     0.12900
N1341       N  0.72486567  0.66974377  0.75926400    -0.03400
C1342       C  0.73456379  0.68591619  0.77793294    -0.00800
C1343       C  0.74025051  0.67917984  0.80708992    -0.23700
C1344       C  0.73768184  0.65832911  0.80557230    -0.23900
C1345       C  0.73051572  0.65277176  0.77551176    -0.00900
H1346       H  0.75207665  0.68814559  0.82610484     0.12800
H1347       H  0.74679894  0.64846879  0.82332888     0.12900
O1348       O  0.99249881  0.48754426  0.75715605    -0.74400
O1349       O  0.91014856  0.52520734  0.76225542    -0.74400
O1350       O  0.91195700  0.48425572  0.75580984    -0.74500
O1351       O  0.99047444  0.52822982  0.76290817    -0.74500
O1352       O  0.99076523  0.53099978  0.71236717    -0.74400
O1353       O  0.91449014  0.48665710  0.70533421    -0.74400
O1354       O  0.91051024  0.52771903  0.71177807    -0.74400
O1355       O  0.99544613  0.49016982  0.70677837    -0.74500
Ni1356     Ni  0.95112571  0.50617955  0.76127360     1.25400
Ni1357     Ni  0.95279333  0.50893188  0.70723544     1.25400
C1358       C  0.00839414  0.48285279  0.73149910     0.87800
C1359       C  0.89714776  0.53309244  0.73817389     0.87700
C1360       C  0.90029560  0.47812899  0.72930751     0.87800
C1361       C  0.00340941  0.53688065  0.73860956     0.87900
N1362       N  0.69378663  0.34423520  0.71578154    -0.03400
C1363       C  0.70677845  0.35815479  0.69502975    -0.00800
C1364       C  0.71334690  0.34838733  0.66738459    -0.23700
C1365       C  0.70844499  0.32792682  0.67226121    -0.23900
C1366       C  0.69908204  0.32561803  0.70281954    -0.00900
H1367       H  0.72759433  0.35500183  0.64746985     0.12800
H1368       H  0.71851647  0.31622444  0.65673276     0.12900
C1369       C  0.91922163  0.20063118  0.81024096     0.86500
C1370       C  0.95591811  0.21533115  0.80779512    -0.53700
C1371       C  0.95987461  0.22495763  0.78054108     0.09500
C1372       C  0.92574808  0.21951317  0.75840313     0.20400
C1373       C  0.88403054  0.21410766  0.80349761    -0.54400
C1374       C  0.88750456  0.22402323  0.77639203     0.09600
C1375       C  0.92168296  0.18655821  0.78206702    -0.54000
C1376       C  0.92522673  0.19636696  0.75518593     0.10100
H1377       H  0.97752477  0.21749275  0.82584854     0.14700
H1378       H  0.92839735  0.22719103  0.73617705     0.00400
H1379       H  0.85880650  0.21626270  0.81849222     0.15000
H1380       H  0.92065932  0.17012160  0.78327205     0.14700
C1381       C  0.98339255  0.82027052  0.79703572     0.86500
C1382       C  0.94561806  0.80657509  0.79236493    -0.53700
C1383       C  0.94472225  0.79573334  0.76565954     0.09500
C1384       C  0.98191315  0.79960841  0.74531028     0.20400
C1385       C  0.51115484  0.80687477  0.79226653    -0.54400
C1386       C  0.51221047  0.79575708  0.76554350     0.09600
C1387       C  0.98625218  0.83343903  0.76864801    -0.54000
C1388       C  0.98563173  0.82286820  0.74147269     0.10100
H1389       H  0.92248701  0.80387332  0.80928434     0.14700
H1390       H  0.98143773  0.79095125  0.72341121     0.00400
H1391       H  0.53289538  0.80562445  0.81008498     0.15000
H1392       H  0.47825583  0.85008698  0.76789491     0.14700
C1393       C  0.92834450  0.11772410  0.00358500     0.80300
N1394       N  0.93502180  0.12780916  0.53208878    -0.78000
C1395       C  0.93936332  0.11733272  0.55789547     0.82700
N1396       N  0.94548189  0.09717626  0.55604177    -0.78000
C1397       C  0.94685502  0.08753787  0.52837807     0.82800
N1398       N  0.93393895  0.09737495  0.00233897    -0.79700
C1399       C  0.49183340  0.90579234  0.99202476     0.80300
N1400       N  0.49063503  0.92638607  0.99353875    -0.78000
C1401       C  0.98300456  0.93658893  0.52386555     0.82700
N1402       N  0.48054100  0.92365741  0.54760631    -0.78000
C1403       C  0.48657369  0.90339501  0.54682051     0.82800
N1404       N  0.49099236  0.89382135  0.51932526    -0.79700
C1405       C  0.97913512  0.95894561  0.52497680    -0.19800
C1406       C  0.95626192  0.96858846  0.54781746     0.36400
C1407       C  0.95261632  0.98973308  0.54730311    -0.25800
C1408       C  0.97113496  0.00140033  0.52444826     0.02800
C1409       C  0.99046768  0.99156262  0.00275564     0.27600
C1410       C  0.99349748  0.97033983  0.00212824    -0.24900
N1411       N  0.93597655  0.95687746  0.57097203    -0.82300
H1412       H  0.93480502  0.99716659  0.56457257     0.13400
C1413       C  0.96550002  0.02352858  0.52435551     0.02800
N1414       N  0.01461377  0.00402398  0.98267149    -0.80900
H1415       H  0.52998347  0.96504698  0.98878839     0.18300
C1416       C  0.99141215  0.03659910  0.54100259    -0.25700
C1417       C  0.98610939  0.05761764  0.54232898     0.36300
C1418       C  0.95439655  0.06565186  0.52648163    -0.19700
C1419       C  0.92887113  0.05257396  0.50942688    -0.25000
C1420       C  0.93381085  0.03151365  0.50853150     0.27700
H1421       H  0.01564299  0.03032941  0.55314492     0.13400
N1422       N  0.01290808  0.07085536  0.55951363    -0.82300
H1423       H  0.90478020  0.05859046  0.99075179     0.18300
N1424       N  0.90772658  0.01813676  0.98444620    -0.80900
H1425       H  0.03448376  0.06255233  0.56990398     0.33900
H1426       H  0.02791637  0.08044008  0.54412074     0.38400
H1427       H  0.88809901  0.02659395  0.97223318     0.33900
H1428       H  0.92678939  0.01169973  0.96838596     0.30600
H1429       H  0.54909489  0.99732025  0.97383490     0.33900
H1430       H  0.99588463  0.01107291  0.96782933     0.30600
H1431       H  0.91444201  0.94744635  0.56021291     0.38400
H1432       H  0.92080747  0.96629399  0.58613829     0.33900
C1433       C  0.98559011  0.83305674  0.82683650    -0.19800
C1434       C  0.51103943  0.84737985  0.83052841     0.36400
C1435       C  0.51337665  0.85925191  0.85745503    -0.25800
C1436       C  0.48319244  0.85804768  0.87957592     0.02800
C1437       C  0.95392130  0.84669310  0.87335463     0.27600
C1438       C  0.95211786  0.83496120  0.84628963    -0.24900
N1439       N  0.54261243  0.84919118  0.80843708    -0.82300
H1440       H  0.53899129  0.86948693  0.86112083     0.13400
C1441       C  0.48684344  0.87059606  0.90790851     0.02800
N1442       N  0.91957631  0.84791308  0.89301283    -0.80900
H1443       H  0.92373068  0.82793754  0.84059256     0.18300
C1444       C  0.96761671  0.88740739  0.91105915    -0.25700
C1445       C  0.96614606  0.89936103  0.93784995     0.36300
C1446       C  0.49091335  0.89441963  0.96232238    -0.19700
C1447       C  0.50900408  0.87562975  0.96011867    -0.25000
C1448       C  0.50720132  0.86368193  0.93319963     0.27700
H1449       H  0.94928756  0.89101702  0.89198380     0.13400
N1450       N  0.93987881  0.91579953  0.93976128    -0.82300
H1451       H  0.52457527  0.87018134  0.97954566     0.18300
N1452       N  0.52597190  0.84456166  0.93139094    -0.80900
H1453       H  0.94765582  0.92587022  0.92238688     0.33900
H1454       H  0.91102920  0.90996194  0.93574970     0.38400
H1455       H  0.54016437  0.84177832  0.95182930     0.33900
H1456       H  0.50369908  0.83315238  0.92874186     0.30600
H1457       H  0.89550760  0.83931387  0.88404391     0.33900
H1458       H  0.92636186  0.84137497  0.91369261     0.30600
H1459       H  0.56902549  0.84570394  0.81895174     0.38400
H1460       H  0.54525931  0.86429333  0.80171871     0.33900
C1461       C  0.98996960  0.83337585  0.71162696    -0.19800
C1462       C  0.96628172  0.82774249  0.68628041     0.36400
C1463       C  0.96900572  0.83922852  0.65963424    -0.25800
C1464       C  0.48957040  0.85505526  0.65584551     0.02800
C1465       C  0.51474682  0.86029242  0.68040758     0.27600
C1466       C  0.51115660  0.84925750  0.70743327    -0.24900
N1467       N  0.93820372  0.81089614  0.68775757    -0.82300
H1468       H  0.94963553  0.83511045  0.64076678     0.13400
C1469       C  0.48992908  0.86743050  0.62803913     0.02800
N1470       N  0.54372226  0.87682695  0.67776393    -0.80900
H1471       H  0.53022616  0.85345562  0.72644512     0.18300
C1472       C  0.98765542  0.88960276  0.63256702    -0.25700
C1473       C  0.98565409  0.90184962  0.60683622     0.36300
C1474       C  0.48780506  0.89148611  0.57537213    -0.19700
C1475       C  0.50077472  0.87147260  0.57362918    -0.25000
C1476       C  0.50187303  0.85940345  0.59959612     0.27700
H1477       H  0.98251479  0.89626399  0.65498221     0.13400
N1478       N  0.97753945  0.92282677  0.61109562    -0.82300
H1479       H  0.51025241  0.86512166  0.55191712     0.18300
N1480       N  0.51511127  0.83902904  0.59725005    -0.80900
H1481       H  0.99965615  0.92959974  0.62490356     0.33900
H1482       H  0.95036751  0.92375369  0.62268548     0.38400
H1483       H  0.52264822  0.83532485  0.57468856     0.33900
H1484       H  0.54113087  0.83848915  0.60985491     0.30600
H1485       H  0.55992916  0.87873903  0.69785142     0.33900
H1486       H  0.56393880  0.87287397  0.66060765     0.30600
H1487       H  0.91007010  0.81614640  0.68344667     0.38400
H1488       H  0.94516562  0.80054531  0.67034814     0.33900
C1489       C  0.92434949  0.12961718  0.97510853    -0.19800
C1490       C  0.91946190  0.15088529  0.97595924     0.36400
C1491       C  0.91615591  0.16143620  0.94876884    -0.25800
C1492       C  0.91777026  0.15147208  0.92035765     0.02800
C1493       C  0.92229000  0.13032715  0.91911723     0.27600
C1494       C  0.92556313  0.11964294  0.94641030    -0.24900
N1495       N  0.91824309  0.16208643  0.00425815    -0.82300
H1496       H  0.91307423  0.17770738  0.94987460     0.13400
C1497       C  0.91662262  0.16365952  0.89223036     0.02800
N1498       N  0.92345420  0.11980033  0.89012586    -0.80900
H1499       H  0.92911715  0.10342939  0.94513525     0.18300
C1500       C  0.94932071  0.16401348  0.87226812    -0.25700
C1501       C  0.95040993  0.17603090  0.84627011     0.36300
C1502       C  0.91821994  0.18829111  0.83966468    -0.19700
C1503       C  0.88529442  0.18778686  0.85992297    -0.25000
C1504       C  0.88417915  0.17559074  0.88594535     0.27700
H1505       H  0.97451720  0.15501554  0.87706322     0.13400
N1506       N  0.98446250  0.17562907  0.82640617    -0.82300
H1507       H  0.85977898  0.19648194  0.85570984     0.18300
N1508       N  0.85000301  0.17511148  0.90591596    -0.80900
H1509       H  0.98764636  0.16068249  0.81873625     0.33900
H1510       H  0.00953437  0.18009116  0.83907343     0.38400
H1511       H  0.82865549  0.18475712  0.89828785     0.33900
H1512       H  0.83710773  0.16041348  0.90486607     0.30600
H1513       H  0.92709304  0.10432545  0.89306504     0.33900
H1514       H  0.89583119  0.12107203  0.87996217     0.30600
H1515       H  0.97125172  0.16086527  0.51047409     0.38400
H1516       H  0.89130130  0.16931356  0.00567092     0.33900
C1517       C  0.93784675  0.12816207  0.58750837    -0.19800
C1518       C  0.91240427  0.12132691  0.61126925     0.36400
C1519       C  0.91021177  0.13293940  0.63842927    -0.25800
C1520       C  0.93302492  0.15109341  0.64201771     0.02800
C1521       C  0.95858552  0.15784891  0.61838825     0.27600
C1522       C  0.96057280  0.14635468  0.59121390    -0.24900
N1523       N  0.88831246  0.10294808  0.60743101    -0.82300
H1524       H  0.89063332  0.12791354  0.65681447     0.13400
C1525       C  0.93050903  0.16285818  0.67083800     0.02800
N1526       N  0.98238701  0.17632969  0.62220657    -0.80900
H1527       H  0.97994688  0.15157509  0.57281766     0.18300
C1528       C  0.96071734  0.16147326  0.69217761    -0.25700
C1529       C  0.95972080  0.17261798  0.71964275     0.36300
C1530       C  0.92818686  0.18539362  0.72574798    -0.19700
C1531       C  0.89836134  0.18714610  0.70416076    -0.25000
C1532       C  0.89911183  0.17585120  0.67665218     0.27700
H1533       H  0.98511506  0.15168810  0.68746291     0.13400
N1534       N  0.99101360  0.17119228  0.74114966    -0.82300
H1535       H  0.87416708  0.19702592  0.70907037     0.18300
N1536       N  0.86817394  0.17738127  0.65470656    -0.80900
H1537       H  0.01782508  0.17536768  0.73026724     0.33900
H1538       H  0.99221680  0.15603050  0.74731358     0.38400
H1539       H  0.84711905  0.18745499  0.66262424     0.33900
H1540       H  0.88101942  0.18365351  0.63504159     0.30600
H1541       H  0.99996022  0.17905962  0.60278883     0.33900
H1542       H  0.96310859  0.18826222  0.62423919     0.30600
H1543       H  0.86830113  0.10520064  0.58994908     0.38400
H1544       H  0.87127814  0.10008037  0.62707931     0.33900
C1545       C  0.85692703  0.23778384  0.76554200    -0.19800
C1546       C  0.86768513  0.25678992  0.75294536     0.36400
C1547       C  0.83785916  0.26941824  0.74355461    -0.25800
C1548       C  0.79738078  0.26395256  0.74757845     0.02800
C1549       C  0.78656693  0.24488952  0.75986979     0.27600
C1550       C  0.81642217  0.23194879  0.76844054    -0.24900
N1551       N  0.90871301  0.26360212  0.75079980    -0.82300
H1552       H  0.84622385  0.28395566  0.73379789     0.13400
C1553       C  0.76719566  0.27887275  0.73993838     0.02800
N1554       N  0.74540198  0.23894638  0.76428972    -0.80900
H1555       H  0.80802075  0.21729954  0.77779217     0.18300
C1556       C  0.73666119  0.27357446  0.71935029    -0.25700
C1557       C  0.71067017  0.28806438  0.70933021     0.36300
C1558       C  0.71626858  0.30856598  0.71925554    -0.19700
C1559       C  0.74486515  0.31340801  0.74156812    -0.25000
C1560       C  0.76995885  0.29879758  0.75224037     0.27700
H1561       H  0.73366803  0.25820100  0.71027214     0.13400
N1562       N  0.67956692  0.28152577  0.68875981    -0.82300
H1563       H  0.74913791  0.32891574  0.74967712     0.18300
N1564       N  0.79913057  0.30425293  0.77494431    -0.80900
H1565       H  0.66154941  0.27066554  0.69998261     0.33900
H1566       H  0.66112439  0.29334850  0.68423984     0.38400
H1567       H  0.79760366  0.31952751  0.78145513     0.33900
H1568       H  0.79202946  0.29582298  0.79431802     0.30600
H1569       H  0.74245705  0.22446155  0.77344014     0.33900
H1570       H  0.73370830  0.24891493  0.78053700     0.30600
H1571       H  0.91937508  0.26542111  0.77300343     0.38400
H1572       H  0.91154315  0.27786383  0.74090027     0.33900
C1573       C  0.73061259  0.37707320  0.70273755    -0.19800
C1574       C  0.72904145  0.39446599  0.68486505     0.36400
C1575       C  0.75544810  0.41117172  0.69044362    -0.25800
C1576       C  0.78424095  0.41073511  0.71327954     0.02800
C1577       C  0.78542880  0.39343711  0.73160359     0.27600
C1578       C  0.75854084  0.37687120  0.72620413    -0.24900
N1579       N  0.70061036  0.39518900  0.66101073    -0.82300
H1580       H  0.75378978  0.42447576  0.67656835     0.13400
C1581       C  0.81365612  0.42816434  0.71714155     0.02800
N1582       N  0.81469202  0.39248964  0.75501236    -0.80900
H1583       H  0.76032411  0.36346026  0.73973452     0.18300
C1584       C  0.81838259  0.43767947  0.74587174    -0.25700
C1585       C  0.84651615  0.45378694  0.75050896     0.36300
C1586       C  0.87024304  0.46094152  0.72586136    -0.19700
C1587       C  0.86507844  0.45152082  0.69700208    -0.25000
C1588       C  0.83750003  0.43512646  0.69246330     0.27700
H1589       H  0.79999232  0.43259329  0.76490681     0.13400
N1590       N  0.85038584  0.46292695  0.78027035    -0.82300
H1591       H  0.88317315  0.45670161  0.67787925     0.18300
N1592       N  0.83410799  0.42530793  0.66297734    -0.80900
H1593       H  0.82280585  0.46828221  0.78691988     0.33900
H1594       H  0.85761497  0.45167579  0.79538874     0.38400
H1595       H  0.85351177  0.43231944  0.64724933     0.33900
H1596       H  0.84312499  0.41046253  0.66506268     0.30600
H1597       H  0.81136028  0.37881709  0.76655302     0.33900
H1598       H  0.84261083  0.39261110  0.74434256     0.30600
H1599       H  0.68315384  0.40763944  0.66536805     0.38400
H1600       H  0.71607473  0.39766336  0.64052493     0.33900
C1601       C  0.75677768  0.70461608  0.76762866    -0.19800
C1602       C  0.75103507  0.72369813  0.78154885     0.36400
C1603       C  0.77835488  0.74002946  0.77598350    -0.25800
C1604       C  0.81190467  0.73736540  0.75723973     0.02800
C1605       C  0.81661967  0.71859893  0.74216283     0.27600
C1606       C  0.78870897  0.70256671  0.74714102    -0.24900
N1607       N  0.71807479  0.72633922  0.80190297    -0.82300
H1608       H  0.77472525  0.75441642  0.78779937     0.13400
C1609       C  0.84565599  0.75255601  0.75812899     0.02800
N1610       N  0.85129057  0.71552892  0.72350505    -0.80900
H1611       H  0.79346022  0.68805322  0.73645809     0.18300
C1612       C  0.87627699  0.74940763  0.77844951    -0.25700
C1613       C  0.91009536  0.76244638  0.77989203     0.36300
C1614       C  0.91329871  0.77949394  0.76069105    -0.19700
C1615       C  0.88253106  0.78264401  0.74022672    -0.25000
C1616       C  0.84884171  0.76916372  0.73848983     0.27700
H1617       H  0.87392715  0.73651315  0.79336115     0.13400
N1618       N  0.93997367  0.75805895  0.80163284    -0.82300
H1619       H  0.88404583  0.79602228  0.72642817     0.18300
N1620       N  0.81762913  0.77247177  0.71742736    -0.80900
H1621       H  0.94982260  0.74360237  0.79632672     0.33900
H1622       H  0.96495472  0.76784807  0.79981556     0.38400
H1623       H  0.82437702  0.78545902  0.70480735     0.33900
H1624       H  0.81648657  0.76025918  0.70185430     0.31400
H1625       H  0.85106013  0.70066495  0.71478311     0.33900
H1626       H  0.84995114  0.72500966  0.70480921     0.30600
H1627       H  0.70121891  0.73779061  0.79339001     0.38400
H1628       H  0.72913325  0.73129330  0.82305551     0.33900
C1629       C  0.74523478  0.63322775  0.76303807    -0.19800
C1630       C  0.77616306  0.63281647  0.74098703     0.36400
C1631       C  0.79494639  0.61468463  0.73427261    -0.25800
C1632       C  0.78430255  0.59688883  0.74968600     0.02800
C1633       C  0.75258930  0.59698378  0.77089382     0.27600
C1634       C  0.73320846  0.61505333  0.77728613    -0.24900
N1635       N  0.79040709  0.65097087  0.72657585    -0.82300
H1636       H  0.81967383  0.61482621  0.71822785     0.13400
C1637       C  0.81039958  0.57939439  0.74658971     0.02800
N1638       N  0.74081893  0.57886894  0.78661099    -0.80900
H1639       H  0.70979377  0.61509820  0.79444287     0.18300
C1640       C  0.83360785  0.57474987  0.77147734    -0.25700
C1641       C  0.86185598  0.55984666  0.76911409     0.36300
C1642       C  0.86692364  0.54888713  0.74132578    -0.19700
C1643       C  0.84340667  0.55352107  0.71633804    -0.25000
C1644       C  0.81521731  0.56869273  0.71871602     0.27700
H1645       H  0.83071682  0.58327518  0.79272485     0.13400
N1646       N  0.88634693  0.55651648  0.79481060    -0.82300
H1647       H  0.84700917  0.54531695  0.69491068     0.18300
N1648       N  0.79165726  0.57339666  0.69296914    -0.80900
H1649       H  0.90160568  0.57018615  0.80050707     0.33900
H1650       H  0.86785281  0.55247120  0.81321370     0.38400
H1651       H  0.79869771  0.56418977  0.67416459     0.33900
H1652       H  0.76195218  0.56986338  0.69859910     0.30600
H1653       H  0.74368089  0.58181449  0.81000435     0.33900
H1654       H  0.71080320  0.57553862  0.78219500     0.30600
H1655       H  0.82052603  0.65331828  0.73157004     0.38400
H1656       H  0.78790402  0.64878339  0.70299938     0.33900
C1657       C  0.54369985  0.78090543  0.75887926    -0.19800
C1658       C  0.53528084  0.76206502  0.74387018     0.36400
C1659       C  0.56541710  0.74828791  0.73945533    -0.25800
C1660       C  0.60389000  0.75256104  0.75027377     0.02800
C1661       C  0.61264575  0.77123005  0.76535946     0.27600
C1662       C  0.58268407  0.78530227  0.76912912    -0.24900
N1663       N  0.49598896  0.75637101  0.73397268    -0.82300
H1664       H  0.55852880  0.73392905  0.72783385     0.13400
C1665       C  0.63419515  0.73709272  0.74553510     0.02800
N1666       N  0.65162367  0.77563225  0.77733162    -0.80900
H1667       H  0.58982351  0.79972567  0.78041873     0.18300
C1668       C  0.66722091  0.74121050  0.72648319    -0.25700
C1669       C  0.69289357  0.72588231  0.71766396     0.36300
C1670       C  0.68503621  0.70587687  0.72795260    -0.19700
C1671       C  0.65362546  0.70224276  0.74878778    -0.25000
C1672       C  0.62832245  0.71763649  0.75780135     0.27700
H1673       H  0.67220834  0.75626097  0.71742011     0.13400
N1674       N  0.72597168  0.73108013  0.69788779    -0.82300
H1675       H  0.64746700  0.68706079  0.75689039     0.18300
N1676       N  0.59580470  0.71346478  0.77859036    -0.80900
H1677       H  0.74388959  0.74201324  0.70937689     0.33900
H1678       H  0.74373030  0.71873035  0.69394708     0.38400
H1679       H  0.59532215  0.69835951  0.78532356     0.33900
H1680       H  0.60086696  0.72238970  0.79824451     0.30600
H1681       H  0.65334698  0.79008939  0.78755992     0.33900
H1682       H  0.65589781  0.76538232  0.79467846     0.30600
H1683       H  0.99683707  0.75198206  0.71326538     0.38400
H1684       H  0.48695166  0.74284687  0.74447952     0.33900
C1685       C  0.67815705  0.63600438  0.71980081    -0.19800
C1686       C  0.68081404  0.61761630  0.70298217     0.36400
C1687       C  0.65435864  0.60115445  0.70962781    -0.25800
C1688       C  0.62498010  0.60282711  0.73235504     0.02800
C1689       C  0.62293961  0.62100585  0.74957909     0.27600
C1690       C  0.64958614  0.63728564  0.74334790    -0.24900
N1691       N  0.70914603  0.61603694  0.67837971    -0.82300
H1692       H  0.65549041  0.58722664  0.69618597     0.13400
C1693       C  0.59378202  0.58643136  0.73504709     0.02800
N1694       N  0.59278600  0.62364952  0.77243540    -0.80900
H1695       H  0.64647746  0.65138438  0.75596998     0.18300
C1696       C  0.59522603  0.57214078  0.75816653    -0.25700
C1697       C  0.56660561  0.55596319  0.75984690     0.36300
C1698       C  0.53624466  0.55403468  0.73796859    -0.19700
C1699       C  0.53457389  0.56871959  0.71537157    -0.25000
C1700       C  0.56282934  0.58487179  0.71389052     0.27700
H1701       H  0.61899066  0.57335475  0.77458484     0.13400
N1702       N  0.56935753  0.54119639  0.78305330    -0.82300
H1703       H  0.51119309  0.56765555  0.69861759     0.18300
N1704       N  0.56008668  0.59974298  0.69081062    -0.80900
H1705       H  0.59706123  0.53477239  0.78088202     0.33900
H1706       H  0.56817304  0.54872103  0.80423205     0.38400
H1707       H  0.56088637  0.59230303  0.66955250     0.33900
H1708       H  0.53254063  0.60629889  0.69326534     0.30600
H1709       H  0.59547622  0.61254052  0.78880226     0.33900
H1710       H  0.56505449  0.62142893  0.76220359     0.30600
H1711       H  0.73750005  0.61758015  0.68764196     0.38400
H1712       H  0.70686908  0.60161938  0.66805599     0.33900
C1713       C  0.99439170  0.23901318  0.77328095    -0.19800
C1714       C  0.51175091  0.23689157  0.74323799     0.36400
C1715       C  0.54444654  0.25064349  0.73877196    -0.25800
C1716       C  0.55764233  0.26388696  0.76237850     0.02800
C1717       C  0.03972423  0.26703843  0.78934736     0.27600
C1718       C  0.00688942  0.25377072  0.79503640    -0.24900
N1719       N  0.50018770  0.22286611  0.71929757    -0.82300
H1720       H  0.55986936  0.25081674  0.71695100     0.13400
C1721       C  0.59134123  0.27886134  0.75732671     0.02800
N1722       N  0.05072410  0.28252750  0.81139302    -0.80900
H1723       H  0.99068730  0.25523606  0.81640556     0.18300
C1724       C  0.58620089  0.29445335  0.73682551    -0.25700
C1725       C  0.61163945  0.31188379  0.73698298     0.36300
C1726       C  0.64308776  0.31389125  0.75789453    -0.19700
C1727       C  0.65040940  0.29741177  0.77639089    -0.25000
C1728       C  0.62553796  0.27974525  0.77586468     0.27700
H1729       H  0.56048941  0.29383261  0.72220361     0.13400
N1730       N  0.60343737  0.32808115  0.71735811    -0.82300
H1731       H  0.67480693  0.29860360  0.79226099     0.18300
N1732       N  0.63503582  0.26338958  0.79520425    -0.80900
H1733       H  0.57445402  0.33237496  0.72195765     0.33900
H1734       H  0.60462173  0.32257949  0.69485934     0.38400
H1735       H  0.66295489  0.25859632  0.78833757     0.33900
H1736       H  0.61548224  0.25084717  0.79190349     0.30600
H1737       H  0.02639432  0.29158634  0.81505557     0.33900
H1738       H  0.55530426  0.26932580  0.83359348     0.30600
H1739       H  0.02839435  0.21356697  0.71853315     0.38400
H1740       H  0.49331549  0.23117445  0.70020552     0.33900
C1741       C  0.54937628  0.46989392  0.72893769    -0.19800
C1742       C  0.56873755  0.46487566  0.75605339     0.36400
C1743       C  0.59907499  0.45106472  0.75504372    -0.25800
C1744       C  0.61184932  0.44232211  0.72745354     0.02800
C1745       C  0.59547717  0.44875335  0.69996918     0.27600
C1746       C  0.56415596  0.46228851  0.70099036    -0.24900
N1747       N  0.04092465  0.46645622  0.78731527    -0.82300
H1748       H  0.61122335  0.44635942  0.77636906     0.13400
C1749       C  0.63644723  0.42409948  0.72871380     0.02800
N1750       N  0.61015939  0.44115420  0.67122862    -0.80900
H1751       H  0.55069735  0.46651172  0.67991068     0.18300
C1752       C  0.62170083  0.40607550  0.71474540    -0.25700
C1753       C  0.63590261  0.38728171  0.72240999     0.36300
C1754       C  0.66547507  0.38617557  0.74463789    -0.19700
C1755       C  0.68282720  0.40433218  0.75667383    -0.25000
C1756       C  0.66925378  0.42331799  0.74836891     0.27700
H1757       H  0.59655968  0.40629594  0.69965639     0.13400
N1758       N  0.61799060  0.36930432  0.70899672    -0.82300
H1759       H  0.70605205  0.40362719  0.77340426     0.18300
N1760       N  0.68752403  0.44174259  0.76068988    -0.80900
H1761       H  0.58748893  0.36926086  0.71363256     0.33900
H1762       H  0.62207031  0.37000029  0.68537233     0.38400
H1763       H  0.71109377  0.43853259  0.77479724     0.33900
H1764       H  0.69985718  0.44985927  0.74240900     0.30600
H1765       H  0.59513172  0.44733647  0.65319192     0.33900
H1766       H  0.63990779  0.44617851  0.66913007     0.30600
H1767       H  0.02984583  0.45328808  0.79786981     0.38400
H1768       H  0.06410713  0.47278055  0.80052706     0.33900
loop_ 
_geom_bond_atom_site_label_1 
_geom_bond_atom_site_label_2 
_geom_bond_distance 
_geom_bond_site_symmetry_2 
_ccdc_geom_bond_type 
N1            C5   1.366       .  A
N1            C2   1.365       .  A
N1           N36   1.426       .  S
C2            C3   1.381       .  A
C2          C400   1.495       .  S
C3            C4   1.373       .  A
C3            H6   1.083       .  S
C4            C5   1.383       .  A
C4            H7   1.083       .  S
C5          C428   1.499       .  S
N8           C12   1.363       .  A
N8            C9   1.361       .  A
N8           N15   1.426       .  S
C9           C10   1.382       .  A
C9          C359   1.487       .  S
C10          C11   1.374       .  A
C10          H13   1.082       .  S
C11          C12   1.382       .  A
C11          H14   1.083       .  S
C12         C344   1.490       .  S
N15          C19   1.365       .  A
N15          C16   1.362       .  A
C16          C17   1.383       .  A
C16         C275   1.490       .  S
C17          C18   1.375       .  A
C17          H20   1.083       .  S
C18          C19   1.381       .  A
C18          H21   1.083       .  S
C19         C303   1.492       .  S
O22         Ni30   1.907       .  S
O22          C32   1.279       .  A
O23         Ni30   1.910       .  S
O23          C33   1.279       .  A
O24         Ni30   1.932       .  S
O24          C34   1.285       .  A
O25         Ni30   1.932       .  S
O25          C35   1.284       .  A
O26         Ni31   1.907       .  S
O26          C35   1.279       .  A
O27         Ni31   1.913       .  S
O27          C34   1.280       .  A
O28         Ni31   1.942       .  S
O28          C33   1.287       .  A
O29         Ni31   1.942       .  S
O29          C32   1.287       .  A
Ni30        Ni31   2.381       .  S
C32        C1299   1.500       .  S
C33         C316   1.500       .  S
C34         C260   1.492       .  S
C35        C1256   1.482       .  S
N36          C40   1.363       .  A
N36          C37   1.362       .  A
C37          C38   1.382       .  A
C37         C247   1.490       .  S
C38          C39   1.376       .  A
C38          H41   1.082       .  S
C39          C40   1.384       .  A
C39          H42   1.083       .  S
C40         C232   1.495       .  S
C43          C44   1.535       .  S
C43          C49   1.535       .  S
C43          C47   1.550       .  S
C43         C176   1.541       .  S
C44          H51   1.086       .  S
C44          C45   1.366       .  D
C45          C46   1.544       .  S
C45         C387   1.491       .  S
C46          C50   1.535       .  S
C46          C48   1.545       .  S
C46          H52   1.108       .  S
C47          H53   1.080       .  S
C47          C48   1.373       .  D
C48         C219   1.502       .  S
C49          H54   1.086       .  S
C49          C50   1.362       .  D
C50         C204   1.480       .  S
C55          C56   1.544       .  S
C55          C61   1.536       .  S
C55         C943   1.537       .  S
C55         C107   1.542       .  S
C56          H63   1.080       .  S
C56          C57   1.361       .  D
C57          C58   1.541       .  S
C57         C288   1.485       .  S
C58          C62   1.546       .  S
C58         C944   1.546       .  S
C58          H64   1.107       .  S
C59         C939   1.542   1_455  S
C59          H65   1.085       .  S
C59          C60   1.372       .  D
C60         C942   1.549   1_455  S
C60         C331   1.502       .  S
C61         H950   1.086       .  S
C61          C62   1.369       .  D
C62         C135   1.497       .  S
H66         C945   1.086       .  S
C67          N72   1.366       .  A
C67         N510   1.356       .  A
C67         C163   1.500       .  S
N68          C69   1.351       .  A
N68         C509   1.355       .  A
C69          N70   1.358       .  A
C69         C191   1.475       .  S
N70          C71   1.363       .  A
C71         N514   1.368       .  A
C71          C92   1.493       .  S
N72         C513   1.365       .  A
C73          N74   1.359       .  A
C73         N520   1.359       .  A
C73         C120   1.491       .  S
N74        C1401   1.359       .  A
C75        N1400   1.362   1_554  A
C75         N960   1.362       .  A
C75          C79   1.488       .  S
N76          C77   1.361       .  A
N76         C959   1.361       .  A
C77          N78   1.358       .  A
C77         C148   1.496       .  S
N78         C515   1.357   1_554  A
C79          C80   1.414       .  A
C79         C526   1.406       .  A
C80          C81   1.408       .  A
C80          N85   1.438       .  S
C81          C82   1.401   1_565  A
C81          H86   1.084       .  S
C82         C525   1.411   1_545  A
C82          C87   1.489       .  S
C83          C84   1.408       .  A
C83         C524   1.409       .  A
C83          N88   1.437   1_565  S
C84         C521   1.406       .  A
C84         H973   1.084       .  S
N85         H105   1.046       .  S
N85         H106   1.045       .  S
C87          C90   1.401       .  A
C87          C94   1.411       .  A
N88         H104   1.045       .  S
N88         H987   1.046   1_545  S
H89         C968   1.084   1_455  S
C90          C91   1.410       .  A
C90          H95   1.084       .  S
C91          C92   1.418       .  A
C91          N96   1.438       .  S
C92          C93   1.406       .  A
C93          C94   1.411       .  A
C93         H539   1.083   1_554  S
C94         N540   1.438   1_554  S
N96          H99   1.046       .  S
N96         H100   1.045       .  S
H97         C535   1.084       .  S
N98         C536   1.437       .  S
N98         H101   1.046       .  S
N98         H102   1.045       .  S
H103        N972   1.046   1_565  S
C107        C112   1.414       .  A
C107        C992   1.419       .  A
C108        C109   1.406       .  A
C108        C991   1.418   1_455  A
C108        N113   1.433       .  S
C109        C110   1.400   1_455  A
C109        H114   1.084       .  S
C110        C995   1.405       .  A
C110        C115   1.481       .  S
C111        C112   1.404       .  A
C111        C994   1.406       .  A
C111        N116   1.439       .  S
C112        H117   1.073       .  S
N113        H133   1.046       .  S
N113        H134   1.046       .  S
C115        C122   1.407   1_655  A
C115       C1002   1.400       .  A
N116        H131   1.045       .  S
N116        H132   1.046       .  S
C118        C119   1.402       .  A
C118        C999   1.403       .  A
C118        H123   1.084       .  S
C119       C1004   1.409       .  A
C119        N124   1.432       .  S
C120        C121   1.408   1_655  A
C120       C1003   1.416       .  A
C121        C122   1.407       .  A
C121        H125   1.083       .  S
C122        N126   1.438       .  S
N124        H127   1.045       .  S
N124        H128   1.046       .  S
N126        H129   1.046       .  S
N126        H130   1.046   1_455  S
C135        C136   1.411       .  A
C135       C1024   1.408       .  A
C136        C137   1.406       .  A
C136        N141   1.430       .  S
C137       C1022   1.404       .  A
C137        H142   1.084       .  S
C138        C139   1.409   1_655  A
C138       C1021   1.402       .  A
C138        C143   1.485       .  S
C139        C140   1.406       .  A
C139        N144   1.438       .  S
C140       C1019   1.407   1_455  A
C140        H145   1.083       .  S
N141        H161   1.046       .  S
N141        H162   1.046       .  S
C143        C150   1.408       .  A
C143       C1030   1.401       .  A
N144        H159   1.046       .  S
N144        H160   1.046       .  S
C146        C147   1.406       .  A
C146       C1027   1.404       .  A
C146        H151   1.084       .  S
C147       C1032   1.416       .  A
C147        N152   1.432       .  S
C148        C149   1.411       .  A
C148       C1031   1.416       .  A
C149        C150   1.407       .  A
C149        H153   1.083   1_655  S
C150        N154   1.438   1_655  S
N152        H155   1.045       .  S
N152        H156   1.046       .  S
N154        H157   1.046       .  S
N154        H158   1.046       .  S
C163        C164   1.422       .  A
C163        C168   1.409       .  A
C164        C165   1.402       .  A
C164        N169   1.433       .  S
C165        C166   1.398       .  A
C165        H170   1.084       .  S
C166        C167   1.410       .  A
C166        C171   1.487       .  S
C167        C168   1.411       .  A
C167        N172   1.437       .  S
C168        H173   1.083       .  S
N169        H190   1.046       .  S
N169        H631   1.046       .  S
C171        C174   1.399       .  A
C171        C178   1.409       .  A
N172        H187   1.045       .  S
N172        H188   1.046       .  S
C174        C175   1.403       .  A
C174        H179   1.084       .  S
C175        C176   1.420       .  A
C175        N180   1.433       .  S
C176        C177   1.413       .  A
C177        C178   1.410       .  A
C177        H181   1.075       .  S
C178        N182   1.438       .  S
N180        H183   1.046       .  S
N180        H184   1.046       .  S
N182        H185   1.046       .  S
N182        H186   1.046       .  S
H189        N611   1.046       .  S
C191        C192   1.409       .  A
C191        C196   1.404       .  A
C192        C193   1.408       .  A
C192        N197   1.437       .  S
C193        C194   1.403       .  A
C193        H198   1.084       .  S
C194        C195   1.407       .  A
C194        C199   1.478       .  S
C195        C196   1.404       .  A
C195        N200   1.438       .  S
C196        H201   1.084       .  S
N197        H217   1.046       .  S
N197        H218   1.046       .  S
C199        C202   1.400       .  A
C199        C206   1.411       .  A
N200        H215   1.046       .  S
N200        H216   1.045       .  S
C202        C203   1.401       .  A
C202        H207   1.084       .  S
C203        C204   1.408       .  A
C203        N208   1.432       .  S
C204        C205   1.403       .  A
C205        C206   1.408       .  A
C205        H209   1.084       .  S
C206        N210   1.437       .  S
N208        H211   1.046       .  S
N208        H212   1.046       .  S
N210        H213   1.046       .  S
N210        H214   1.045       .  S
C219        C220   1.413       .  A
C219        C224   1.410       .  A
C220        C221   1.406       .  A
C220        N225   1.432       .  S
C221        C222   1.405       .  A
C221        H226   1.084       .  S
C222        C223   1.411       .  A
C222        C227   1.496       .  S
C223        C224   1.411       .  A
C223        N228   1.437       .  S
C224        H229   1.083       .  S
N225        H245   1.045       .  S
N225        H246   1.046       .  S
C227        C230   1.406       .  A
C227        C234   1.411       .  A
N228        H243   1.046       .  S
N228        H244   1.046       .  S
C230        C231   1.409       .  A
C230        H235   1.084       .  S
C231        C232   1.419       .  A
C231        N236   1.438       .  S
C232        C233   1.405       .  A
C233        C234   1.405       .  A
C233        H237   1.080       .  S
C234        N238   1.438       .  S
N236        H239   1.046       .  S
N236        H240   1.044       .  S
N238        H241   1.046       .  S
N238        H242   1.046       .  S
C247        C248   1.408       .  A
C247        C252   1.405       .  A
C248        C249   1.406       .  A
C248        N253   1.432       .  S
C249        C250   1.405       .  A
C249        H254   1.084       .  S
C250        C251   1.411       .  A
C250        C255   1.490       .  S
C251        C252   1.406       .  A
C251        N256   1.438       .  S
C252        H257   1.080       .  S
N253        H273   1.046       .  S
N253        H274   1.045       .  S
C255        C258   1.403       .  A
C255        C262   1.411       .  A
N256        H271   1.046       .  S
N256        H272   1.046       .  S
C258        C259   1.406       .  A
C258        H263   1.084       .  S
C259        C260   1.413       .  A
C259        N264   1.432       .  S
C260        C261   1.408       .  A
C261        C262   1.408       .  A
C261        H265   1.083       .  S
C262        N266   1.438       .  S
N264        H267   1.046       .  S
N264        H268   1.046       .  S
N266        H269   1.046       .  S
N266        H270   1.046       .  S
C275        C276   1.409       .  A
C275        C280   1.405       .  A
C276        C277   1.407       .  A
C276        N281   1.432       .  S
C277        C278   1.404       .  A
C277        H282   1.084       .  S
C278        C279   1.407       .  A
C278        C283   1.481       .  S
C279        C280   1.404       .  A
C279        N284   1.437       .  S
C280        H285   1.077       .  S
N281        H301   1.045       .  S
N281        H302   1.045       .  S
C283        C286   1.399       .  A
C283        C290   1.409       .  A
N284        H299   1.046       .  S
N284        H300   1.045       .  S
C286        C287   1.398       .  A
C286        H291   1.084       .  S
C287        C288   1.419       .  A
C287        N292   1.440       .  S
C288        C289   1.406       .  A
C289        C290   1.412       .  A
C289        H293   1.081       .  S
C290        N294   1.437       .  S
N292        H295   1.045       .  S
N292        H296   1.041       .  S
N294        H297   1.046       .  S
N294        H298   1.045       .  S
C303        C304   1.411       .  A
C303        C308   1.406       .  A
C304        C305   1.404       .  A
C304        N309   1.429       .  S
C305        C306   1.401       .  A
C305        H310   1.084       .  S
C306        C307   1.411       .  A
C306        C311   1.489       .  S
C307        C308   1.408       .  A
C307        N312   1.432       .  S
C308        H313   1.084       .  S
N309        H329   1.046       .  S
N309        H330   1.046       .  S
C311        C314   1.399       .  A
C311        C318   1.409       .  A
N312        H327   1.045       .  S
N312        H328   1.046       .  S
C314        C315   1.402       .  A
C314        H319   1.084       .  S
C315        C316   1.419       .  A
C315        N320   1.433       .  S
C316        C317   1.410       .  A
C317        C318   1.413       .  A
C317        H321   1.083       .  S
C318        N322   1.432       .  S
N320        H323   1.046       .  S
N320        H324   1.046       .  S
N322        H325   1.045       .  S
N322        H326   1.046       .  S
C331        C332   1.414       .  A
C331        C336   1.411       .  A
C332        C333   1.403       .  A
C332        N337   1.431   1_455  S
C333        C334   1.402       .  A
C333        H338   1.084       .  S
C334        C335   1.409       .  A
C334        C339   1.489       .  S
C335        C336   1.411       .  A
C335        N340   1.437       .  S
C336        H341   1.083       .  S
N337        H358   1.045       .  S
N337       H1241   1.046       .  S
C339        C342   1.403       .  A
C339        C346   1.410       .  A
N340        H355   1.046       .  S
N340        H356   1.045       .  S
C342        C343   1.406       .  A
C342        H347   1.084       .  S
C343        C344   1.419       .  A
C343        N348   1.438       .  S
C344        C345   1.405       .  A
C345        C346   1.405       .  A
C345        H349   1.083       .  S
C346        N350   1.438       .  S
N348        H351   1.045       .  S
N348        H352   1.043       .  S
N350        H353   1.045       .  S
N350        H354   1.046       .  S
H357       N1221   1.046       .  S
C359        C360   1.412       .  A
C359        C364   1.407       .  A
C360        C361   1.406       .  A
C360        N365   1.437       .  S
C361        C362   1.403       .  A
C361        H366   1.084       .  S
C362        C363   1.410       .  A
C362        C367   1.481       .  S
C363        C364   1.399       .  A
C363        N368   1.432       .  S
C364        H369   1.083       .  S
N365        H385   1.044       .  S
N365        H386   1.046       .  S
C367        C370   1.403       .  A
C367        C374   1.405       .  A
N368        H383   1.045       .  S
N368        H384   1.045       .  S
C370        C371   1.410       .  A
C370        H375   1.084       .  S
C371        C372   1.414       .  A
C371        N376   1.432       .  S
C372        C373   1.404       .  A
C372        C919   1.485       .  S
C373        C374   1.398       .  A
C373        H377   1.084       .  S
C374        N378   1.433       .  S
N376        H379   1.046       .  S
N376        H380   1.046       .  S
N378        H381   1.045       .  S
N378        H382   1.046       .  S
C387        C392   1.404       .  A
C387       C1272   1.411       .  A
C388        C389   1.410       .  A
C388       C1271   1.412   1_455  A
C388        N393   1.432       .  S
C389        C390   1.404       .  A
C389        H394   1.084       .  S
C390       C1275   1.409       .  A
C390        C395   1.488       .  S
C391        C392   1.401       .  A
C391       C1274   1.409       .  A
C391        N396   1.433       .  S
C392        H397   1.084       .  S
N393        H414   1.045       .  S
N393       H1297   1.045       .  S
C395        C398   1.399       .  A
C395        C402   1.408       .  A
N396        H411   1.046       .  S
N396       H1296   1.046       .  S
C398        C399   1.405       .  A
C398        H403   1.084       .  S
C399        C400   1.413       .  A
C399        N404   1.426       .  S
C400        C401   1.406       .  A
C401        C402   1.408       .  A
C401        H405   1.084       .  S
C402        N406   1.431       .  S
N404        H407   1.046       .  S
N404        H408   1.045       .  S
N406        H409   1.045       .  S
N406        H410   1.045       .  S
H412       N1280   1.045       .  S
H413       N1277   1.045       .  S
C415        C416   1.417       .  A
C415        C420   1.410       .  A
C415        C916   1.498       .  S
C416        C417   1.400       .  A
C416       N1305   1.433       .  S
C417        C418   1.401       .  A
C417        H422   1.084       .  S
C418        C419   1.413       .  A
C418        C423   1.495       .  S
C419        C420   1.414       .  A
C419        N424   1.437       .  S
C420        H425   1.083       .  S
N421       C1300   1.433       .  S
N421        H441   1.046       .  S
N421        H442   1.046       .  S
C423        C426   1.401       .  A
C423        C430   1.413       .  A
N424        H439   1.045       .  S
N424        H440   1.046       .  S
C426        C427   1.404       .  A
C426        H431   1.084       .  S
C427        C428   1.413       .  A
C427        N432   1.427       .  S
C428        C429   1.407       .  A
C429        C430   1.409       .  A
C429        H433   1.084       .  S
C430        N434   1.437       .  S
N432        H435   1.045       .  S
N432        H436   1.046       .  S
N434        H437   1.046       .  S
N434        H438   1.045       .  S
N443        C447   1.366       .  A
N443        C444   1.364       .  A
N443        N478   1.427       .  S
C444        C445   1.381       .  A
C444        C842   1.493       .  S
C445        C446   1.372       .  A
C445        H448   1.082       .  S
C446        C447   1.383       .  A
C446        H449   1.082       .  S
C447        C870   1.496       .  S
N450        C454   1.363       .  A
N450        C451   1.359       .  A
N450        N457   1.426       .  S
C451        C452   1.383       .  A
C451        C801   1.485       .  S
C452        C453   1.375       .  A
C452        H455   1.082       .  S
C453        C454   1.382       .  A
C453        H456   1.082       .  S
C454        C786   1.493       .  S
N457        C461   1.365       .  A
N457        C458   1.360       .  A
C458        C459   1.384       .  A
C458        C717   1.489       .  S
C459        C460   1.375       .  A
C459        H462   1.082       .  S
C460        C461   1.381       .  A
C460        H463   1.083       .  S
C461        C745   1.492       .  S
O464       Ni472   1.909       .  S
O464        C474   1.279       .  A
O465       Ni472   1.909       .  S
O465        C475   1.279       .  A
O466       Ni472   1.934       .  S
O466        C476   1.285       .  A
O467       Ni472   1.932       .  S
O467        C477   1.284       .  A
O468       Ni473   1.906       .  S
O468        C477   1.279       .  A
O469       Ni473   1.912       .  S
O469        C476   1.281       .  A
O470       Ni473   1.938       .  S
O470        C475   1.286       .  A
O471       Ni473   1.940       .  S
O471        C474   1.286       .  A
Ni472      Ni473   2.381       .  S
C474       C1741   1.498       .  S
C475        C758   1.495       .  S
C476        C702   1.496       .  S
C477       C1698   1.483       .  S
N478        C482   1.364       .  A
N478        C479   1.362       .  A
C479        C480   1.381       .  A
C479        C689   1.487       .  S
C480        C481   1.375       .  A
C480        H483   1.083       .  S
C481        C482   1.385       .  A
C481        H484   1.083       .  S
C482        C674   1.496       .  S
C485        C486   1.537       .  S
C485        C491   1.536       .  S
C485        C489   1.551       .  S
C485        C618   1.540       .  S
C486        H493   1.086       .  S
C486        C487   1.367       .  D
C487        C488   1.543       .  S
C487        C829   1.493       .  S
C488        C492   1.536       .  S
C488        C490   1.540       .  S
C488        H494   1.110       .  S
C489        H495   1.082       .  S
C489        C490   1.371       .  D
C490        C661   1.491       .  S
C491        H496   1.087       .  S
C491        C492   1.361       .  D
C492        C646   1.476       .  S
C497        C498   1.545       .  S
C497        C503   1.534       .  S
C497       C1385   1.539       .  S
C497        C549   1.542       .  S
C498        H505   1.081       .  S
C498        C499   1.364       .  D
C499        C500   1.540       .  S
C499        C730   1.483       .  S
C500        C504   1.543       .  S
C500       C1386   1.547       .  S
C500        H506   1.107       .  S
C501       C1381   1.542   1_455  S
C501        H507   1.086       .  S
C501        C502   1.370       .  D
C502       C1384   1.549   1_455  S
C502        C773   1.499       .  S
C503       H1392   1.086       .  S
C503        C504   1.366       .  D
C504        C577   1.491       .  S
H508       C1387   1.086       .  S
C509        N514   1.366       .  A
C509        C605   1.498   1_554  S
N510        C511   1.353       .  A
C511        N512   1.357       .  A
C511        C633   1.475       .  S
N512        C513   1.361       .  A
C513        C534   1.485       .  S
C515        N516   1.360       .  A
C515        C562   1.483       .  S
N516        C959   1.361   1_556  A
C517        N958   1.360       .  A
C517       N1402   1.362       .  A
C517        C521   1.486       .  S
N518       C1401   1.362       .  A
N518        C519   1.362       .  A
C519        N520   1.361       .  A
C519        C590   1.500       .  S
C521        C522   1.414       .  A
C522        C523   1.409       .  A
C522        N527   1.437       .  S
C523        C524   1.402       .  A
C523        H528   1.084       .  S
C524        C529   1.485   1_565  S
C525        C526   1.412       .  A
C525        N530   1.438   1_564  S
C526       H1415   1.084   1_554  S
N527        H547   1.046       .  S
N527        H548   1.046       .  S
C529        C532   1.401       .  A
C529        C536   1.410       .  A
N530       H1429   1.046   1_545  S
N530        H546   1.044       .  S
H531       C1410   1.084   1_456  S
C532        C533   1.408       .  A
C532        H537   1.084       .  S
C533        C534   1.414       .  A
C533        N538   1.438       .  S
C534        C535   1.404       .  A
C535        C536   1.410       .  A
N538        H541   1.046       .  S
N538        H542   1.046       .  S
N540        H543   1.046       .  S
N540        H544   1.044       .  S
H545       N1414   1.046   1_565  S
C549       C1434   1.420       .  A
C549        C554   1.414       .  A
C550       C1433   1.419   1_455  A
C550        C551   1.406       .  A
C550        N555   1.432       .  S
C551        C552   1.400   1_455  A
C551        H556   1.084       .  S
C552       C1437   1.406       .  A
C552        C557   1.484       .  S
C553       C1436   1.406       .  A
C553        C554   1.408       .  A
C553        N558   1.439       .  S
C554        H559   1.074       .  S
N555        H575   1.046       .  S
N555        H576   1.045       .  S
C557       C1444   1.403       .  A
C557        C564   1.409   1_655  A
N558        H573   1.045       .  S
N558        H574   1.045       .  S
C560       C1441   1.402       .  A
C560        C561   1.407       .  A
C560        H565   1.084       .  S
C561       C1446   1.413       .  A
C561        N566   1.432       .  S
C562       C1445   1.410       .  A
C562        C563   1.407   1_655  A
C563        C564   1.407       .  A
C563        H567   1.084       .  S
C564        N568   1.438       .  S
N566        H569   1.046       .  S
N566        H570   1.046       .  S
N568        H571   1.046       .  S
N568        H572   1.046       .  S
C577        C578   1.410       .  A
C577       C1466   1.407       .  A
C578        C579   1.404       .  A
C578        N583   1.429       .  S
C579       C1464   1.401       .  A
C579        H584   1.084       .  S
C580       C1463   1.404       .  A
C580        C581   1.408   1_655  A
C580        C585   1.493       .  S
C581        C582   1.406       .  A
C581        N586   1.432       .  S
C582       C1461   1.408   1_455  A
C582        H587   1.084       .  S
N583        H603   1.046       .  S
N583        H604   1.045       .  S
C585       C1472   1.404       .  A
C585        C592   1.410   1_655  A
N586        H601   1.045       .  S
N586        H602   1.046       .  S
C588       C1469   1.401       .  A
C588        C589   1.405       .  A
C588        H593   1.084       .  S
C589       C1474   1.416       .  A
C589        N594   1.432       .  S
C590       C1473   1.417       .  A
C590        C591   1.411       .  A
C591        C592   1.408   1_655  A
C591        H595   1.083   1_655  S
C592        N596   1.438       .  S
N594        H597   1.046       .  S
N594        H598   1.046       .  S
N596        H599   1.045       .  S
N596        H600   1.046       .  S
C605        C606   1.424       .  A
C605        C610   1.408       .  A
C606        C607   1.404       .  A
C606        N611   1.439   1_556  S
C607        C608   1.398       .  A
C607        H612   1.084       .  S
C608        C609   1.412       .  A
C608        C613   1.489       .  S
C609        C610   1.411       .  A
C609        N614   1.437       .  S
C610        H615   1.083       .  S
N611        H632   1.045   1_554  S
C613        C616   1.398       .  A
C613        C620   1.411       .  A
N614        H629   1.046       .  S
N614        H630   1.046       .  S
C616        C617   1.402       .  A
C616        H621   1.084       .  S
C617        C618   1.420       .  A
C617        N622   1.433       .  S
C618        C619   1.412       .  A
C619        C620   1.411       .  A
C619        H623   1.077       .  S
C620        N624   1.438       .  S
N622        H625   1.046       .  S
N622        H626   1.046       .  S
N624        H627   1.045       .  S
N624        H628   1.045       .  S
C633        C634   1.407       .  A
C633        C638   1.403       .  A
C634        C635   1.405       .  A
C634        N639   1.432       .  S
C635        C636   1.403       .  A
C635        H640   1.084       .  S
C636        C637   1.409       .  A
C636        C641   1.479       .  S
C637        C638   1.405       .  A
C637        N642   1.438       .  S
C638        H643   1.084       .  S
N639        H659   1.046       .  S
N639        H660   1.045       .  S
C641        C644   1.401       .  A
C641        C648   1.411       .  A
N642        H657   1.046       .  S
N642        H658   1.046       .  S
C644        C645   1.401       .  A
C644        H649   1.084       .  S
C645        C646   1.407       .  A
C645        N650   1.432       .  S
C646        C647   1.402       .  A
C647        C648   1.409       .  A
C647        H651   1.084       .  S
C648        N652   1.437       .  S
N650        H653   1.045       .  S
N650        H654   1.046       .  S
N652        H655   1.046       .  S
N652        H656   1.045       .  S
C661        C662   1.411       .  A
C661        C666   1.406       .  A
C662        C663   1.407       .  A
C662        N667   1.438       .  S
C663        C664   1.407       .  A
C663        H668   1.084       .  S
C664        C665   1.410       .  A
C664        C669   1.497       .  S
C665        C666   1.408       .  A
C665        N670   1.432       .  S
C666        H671   1.084       .  S
N667        H687   1.046       .  S
N667        H688   1.045       .  S
C669        C672   1.406       .  A
C669        C676   1.411       .  A
N670        H685   1.046       .  S
N670        H686   1.045       .  S
C672        C673   1.408       .  A
C672        H677   1.083       .  S
C673        C674   1.420       .  A
C673        N678   1.438       .  S
C674        C675   1.406       .  A
C675        C676   1.404       .  A
C675        H679   1.081       .  S
C676        N680   1.438       .  S
N678        H681   1.046       .  S
N678        H682   1.044       .  S
N680        H683   1.046       .  S
N680        H684   1.046       .  S
C689        C690   1.408       .  A
C689        C694   1.404       .  A
C690        C691   1.407       .  A
C690        N695   1.432       .  S
C691        C692   1.407       .  A
C691        H696   1.084       .  S
C692        C693   1.412       .  A
C692        C697   1.492       .  S
C693        C694   1.405       .  A
C693        N698   1.438       .  S
C694        H699   1.081       .  S
N695        H715   1.045       .  S
N695        H716   1.045       .  S
C697        C700   1.405       .  A
C697        C704   1.410       .  A
N698        H713   1.046       .  S
N698        H714   1.046       .  S
C700        C701   1.408       .  A
C700        H705   1.084       .  S
C701        C702   1.415       .  A
C701        N706   1.432       .  S
C702        C703   1.409       .  A
C703        C704   1.406       .  A
C703        H707   1.083       .  S
C704        N708   1.438       .  S
N706        H709   1.046       .  S
N706        H710   1.046       .  S
N708        H711   1.046       .  S
N708        H712   1.045       .  S
C717        C718   1.408       .  A
C717        C722   1.406       .  A
C718        C719   1.404       .  A
C718        N723   1.432       .  S
C719        C720   1.403       .  A
C719        H724   1.084       .  S
C720        C721   1.406       .  A
C720        C725   1.478       .  S
C721        C722   1.403       .  A
C721        N726   1.438       .  S
C722        H727   1.078       .  S
N723        H743   1.045       .  S
N723        H744   1.046       .  S
C725        C728   1.399       .  A
C725        C732   1.406       .  A
N726        H741   1.045       .  S
N726        H742   1.046       .  S
C728        C729   1.398       .  A
C728        H733   1.084       .  S
C729        C730   1.419       .  A
C729        N734   1.440       .  S
C730        C731   1.405       .  A
C731        C732   1.409       .  A
C731        H735   1.079       .  S
C732        N736   1.437       .  S
N734        H737   1.045       .  S
N734        H738   1.042       .  S
N736        H739   1.046       .  S
N736        H740   1.046       .  S
C745        C746   1.412       .  A
C745        C750   1.406       .  A
C746        C747   1.403       .  A
C746        N751   1.429       .  S
C747        C748   1.399       .  A
C747        H752   1.084       .  S
C748        C749   1.409       .  A
C748        C753   1.486       .  S
C749        C750   1.409       .  A
C749        N754   1.432       .  S
C750        H755   1.084       .  S
N751        H771   1.046       .  S
N751        H772   1.045       .  S
C753        C756   1.398       .  A
C753        C760   1.411       .  A
N754        H769   1.046       .  S
N754        H770   1.046       .  S
C756        C757   1.402       .  A
C756        H761   1.084       .  S
C757        C758   1.417       .  A
C757        N762   1.433       .  S
C758        C759   1.409       .  A
C759        C760   1.414       .  A
C759        H763   1.083       .  S
C760        N764   1.437       .  S
N762        H765   1.046       .  S
N762        H766   1.045       .  S
N764        H767   1.046       .  S
N764        H768   1.046       .  S
C773        C774   1.411       .  A
C773        C778   1.411       .  A
C774        C775   1.404       .  A
C774        N779   1.431   1_455  S
C775        C776   1.404       .  A
C775        H780   1.084       .  S
C776        C777   1.410       .  A
C776        C781   1.492       .  S
C777        C778   1.412       .  A
C777        N782   1.437       .  S
C778        H783   1.083       .  S
N779       H1683   1.045       .  S
N779        H800   1.045       .  S
C781        C784   1.405       .  A
C781        C788   1.411       .  A
N782        H797   1.045       .  S
N782        H798   1.046       .  S
C784        C785   1.409       .  A
C784        H789   1.083       .  S
C785        C786   1.410       .  A
C785        N790   1.432       .  S
C786        C787   1.405       .  A
C787        C788   1.407       .  A
C787        H791   1.082       .  S
C788        N792   1.438       .  S
N790        H793   1.045       .  S
N790        H794   1.045       .  S
N792        H795   1.045       .  S
N792        H796   1.046       .  S
H799       N1663   1.046       .  S
C801        C802   1.412       .  A
C801        C806   1.407       .  A
C802        C803   1.407       .  A
C802        N807   1.437       .  S
C803        C804   1.402       .  A
C803        H808   1.084       .  S
C804        C805   1.407       .  A
C804        C809   1.475       .  S
C805        C806   1.395       .  A
C805        N810   1.433       .  S
C806        H811   1.082       .  S
N807        H827   1.044       .  S
N807        H828   1.045       .  S
C809        C812   1.401       .  A
C809        C816   1.405       .  A
N810        H825   1.045       .  S
N810        H826   1.045       .  S
C812        C813   1.407       .  A
C812        H817   1.084       .  S
C813        C814   1.412       .  A
C813        N818   1.432       .  S
C814        C815   1.404       .  A
C814       C1361   1.478       .  S
C815        C816   1.399       .  A
C815        H819   1.084       .  S
C816        N820   1.433       .  S
N818        H821   1.046       .  S
N818        H822   1.046       .  S
N820        H823   1.045       .  S
N820        H824   1.046       .  S
C829       C1714   1.412       .  A
C829        C834   1.405       .  A
C830       C1713   1.413   1_455  A
C830        C831   1.408       .  A
C830        N835   1.431       .  S
C831        C832   1.402       .  A
C831        H836   1.084       .  S
C832       C1717   1.409       .  A
C832        C837   1.486       .  S
C833       C1716   1.409       .  A
C833        C834   1.401       .  A
C833        N838   1.433       .  S
C834        H839   1.084       .  S
N835       H1739   1.045       .  S
N835        H856   1.045   1_455  S
C837        C840   1.399       .  A
C837        C844   1.417       .  A
N838        H853   1.046       .  S
N838       H1738   1.046       .  S
C840        C841   1.403       .  A
C840        H845   1.084       .  S
C841        C842   1.411       .  A
C841        N846   1.426       .  S
C842        C843   1.405       .  A
C843        C844   1.405       .  A
C843        H847   1.084       .  S
C844        N848   1.438       .  S
N846        H849   1.046       .  S
N846        H850   1.045       .  S
N848        H851   1.046       .  S
N848        H852   1.044       .  S
H854       N1722   1.045       .  S
H855       N1719   1.045       .  S
C857        C858   1.419       .  A
C857        C862   1.410       .  A
C857       C1358   1.498       .  S
C858        C859   1.400       .  A
C858       N1747   1.433       .  S
C859        C860   1.399       .  A
C859        H864   1.084       .  S
C860        C861   1.412       .  A
C860        C865   1.491       .  S
C861        C862   1.414       .  A
C861        N866   1.437       .  S
C862        H867   1.083       .  S
N863       C1742   1.433       .  S
N863        H883   1.046       .  S
N863        H884   1.046       .  S
C865        C868   1.399       .  A
C865        C872   1.413       .  A
N866        H881   1.045       .  S
N866        H882   1.046       .  S
C868        C869   1.401       .  A
C868        H873   1.084       .  S
C869        C870   1.412       .  A
C869        N874   1.426       .  S
C870        C871   1.407       .  A
C871        C872   1.410       .  A
C871        H875   1.084       .  S
C872        N876   1.437       .  S
N874        H877   1.046       .  S
N874        H878   1.046       .  S
N876        H879   1.046       .  S
N876        H880   1.045       .  S
N885        C889   1.368       .  A
N885        C886   1.365       .  A
N885        N920   1.428       .  S
C886        C887   1.382       .  A
C886       C1284   1.493       .  S
C887        C888   1.372       .  A
C887        H890   1.083       .  S
C888        C889   1.382       .  A
C888        H891   1.083       .  S
C889       C1312   1.495       .  S
N892        C896   1.360       .  A
N892        C893   1.362       .  A
N892        N899   1.427       .  S
C893        C894   1.383       .  A
C893       C1243   1.490       .  S
C894        C895   1.374       .  A
C894        H897   1.082       .  S
C895        C896   1.382       .  A
C895        H898   1.083       .  S
C896       C1228   1.486       .  S
N899        C903   1.362       .  A
N899        C900   1.364       .  A
C900        C901   1.385       .  A
C900       C1159   1.491       .  S
C901        C902   1.373       .  A
C901        H904   1.082       .  S
C902        C903   1.381       .  A
C902        H905   1.083       .  S
C903       C1187   1.487       .  S
O906       Ni914   1.906       .  S
O906        C916   1.279   1_655  A
O907       Ni914   1.907       .  S
O907        C917   1.279       .  A
O908       Ni914   1.926       .  S
O908        C918   1.283       .  A
O909       Ni914   1.927       .  S
O909        C919   1.283   1_655  A
O910       Ni915   1.909       .  S
O910        C919   1.281   1_655  A
O911       Ni915   1.913       .  S
O911        C918   1.281       .  A
O912       Ni915   1.936       .  S
O912        C917   1.285       .  A
O913       Ni915   1.937       .  S
O913        C916   1.286   1_655  A
Ni914      Ni915   2.382       .  S
C917       C1200   1.491       .  S
C918       C1144   1.489       .  S
N920        C924   1.363       .  A
N920        C921   1.361       .  A
C921        C922   1.382       .  A
C921       C1131   1.487       .  S
C922        C923   1.374       .  A
C922        H925   1.082       .  S
C923        C924   1.383       .  A
C923        H926   1.083       .  S
C924       C1116   1.492       .  S
C927        C928   1.540       .  S
C927        C933   1.534       .  S
C927        C931   1.549       .  S
C927       C1060   1.537       .  S
C928        H935   1.086       .  S
C928        C929   1.368       .  D
C929        C930   1.543       .  S
C929       C1271   1.491       .  S
C930        C934   1.534       .  S
C930        C932   1.543       .  S
C930        H936   1.109       .  S
C931        H937   1.080       .  S
C931        C932   1.370       .  D
C932       C1103   1.495       .  S
C933        H938   1.087       .  S
C933        C934   1.360       .  D
C934       C1088   1.475       .  S
C939        C940   1.541       .  S
C939        C945   1.531       .  S
C939        C991   1.539       .  S
C940        H947   1.083       .  S
C940        C941   1.360       .  D
C941        C942   1.542       .  S
C941       C1172   1.482       .  S
C942        C946   1.544       .  S
C942        H948   1.106       .  S
C943        H949   1.086       .  S
C943        C944   1.369       .  D
C944       C1215   1.495       .  S
C945        C946   1.367       .  D
C946       C1019   1.494       .  S
C951       N1394   1.355       .  A
C951        N956   1.363       .  A
C951       C1047   1.494       .  S
N952       C1393   1.357       .  A
N952        C953   1.354       .  A
C953        N954   1.357       .  A
C953       C1075   1.476       .  S
N954        C955   1.361       .  A
C955       N1398   1.365       .  A
C955        C976   1.487       .  S
N956       C1397   1.363       .  A
C957        N958   1.359       .  A
C957       N1404   1.357       .  A
C957       C1004   1.480       .  S
C959        C963   1.488       .  S
N960        C961   1.361       .  A
C961        N962   1.358       .  A
C961       C1032   1.499       .  S
N962       C1399   1.359   1_554  A
C963        C964   1.412       .  A
C963       C1410   1.406       .  A
C964        C965   1.405       .  A
C964        N969   1.432       .  S
C965        C966   1.401   1_565  A
C965        H970   1.084       .  S
C966       C1409   1.411   1_545  A
C966        C971   1.485       .  S
C967       C1408   1.408   1_565  A
C967        C968   1.408       .  A
C967        N972   1.438   1_665  S
C968       C1405   1.407       .  A
N969        H989   1.046       .  S
N969        H990   1.046       .  S
C971        C974   1.401       .  A
C971        C978   1.410       .  A
N972        H988   1.045   1_455  S
C974        C975   1.409       .  A
C974        H979   1.084       .  S
C975        C976   1.416       .  A
C975        N980   1.438       .  S
C976        C977   1.404       .  A
C977        C978   1.409       .  A
C977       H1423   1.084   1_554  S
C978       N1424   1.438   1_554  S
N980        H983   1.046   1_655  S
N980        H984   1.046   1_655  S
H981       C1419   1.084       .  S
N982       C1420   1.438       .  S
N982        H985   1.046       .  S
N982        H986   1.045       .  S
C991        C996   1.414       .  A
C992        C993   1.406       .  A
C992        N997   1.433       .  S
C993        C994   1.400       .  A
C993        H998   1.084       .  S
C994        C999   1.485       .  S
C995        C996   1.405       .  A
C995       N1000   1.438       .  S
C996       H1001   1.077       .  S
N997       H1017   1.046       .  S
N997       H1018   1.046       .  S
C999       C1006   1.411       .  A
N1000      H1015   1.046       .  S
N1000      H1016   1.046       .  S
C1002      C1003   1.405       .  A
C1002      H1007   1.084       .  S
C1003      N1008   1.432       .  S
C1004      C1005   1.406       .  A
C1005      C1006   1.409       .  A
C1005      H1009   1.084       .  S
C1006      N1010   1.437       .  S
N1008      H1011   1.046       .  S
N1008      H1012   1.046       .  S
N1010      H1013   1.046       .  S
N1010      H1014   1.046       .  S
C1019      C1020   1.412       .  A
C1020      C1021   1.405       .  A
C1020      N1025   1.430       .  S
C1021      H1026   1.084       .  S
C1022      C1023   1.411       .  A
C1022      C1027   1.492       .  S
C1023      C1024   1.408       .  A
C1023      N1028   1.438       .  S
C1024      H1029   1.083       .  S
N1025      H1045   1.046       .  S
N1025      H1046   1.045       .  S
C1027      C1034   1.410       .  A
N1028      H1043   1.046       .  S
N1028      H1044   1.046       .  S
C1030      C1031   1.404       .  A
C1030      H1035   1.084       .  S
C1031      N1036   1.432       .  S
C1032      C1033   1.411       .  A
C1033      C1034   1.408       .  A
C1033      H1037   1.083       .  S
C1034      N1038   1.438       .  S
N1036      H1039   1.046       .  S
N1036      H1040   1.046       .  S
N1038      H1041   1.046       .  S
N1038      H1042   1.045       .  S
C1047      C1048   1.423       .  A
C1047      C1052   1.408       .  A
C1048      C1049   1.404       .  A
C1048      N1053   1.439       .  S
C1049      C1050   1.397       .  A
C1049      H1054   1.084       .  S
C1050      C1051   1.407       .  A
C1050      C1055   1.479       .  S
C1051      C1052   1.407       .  A
C1051      N1056   1.437       .  S
C1052      H1057   1.083       .  S
N1053      H1515   1.046       .  S
N1053      H1074   1.046       .  S
C1055      C1058   1.397       .  A
C1055      C1062   1.406       .  A
N1056      H1071   1.046       .  S
N1056      H1072   1.046       .  S
C1058      C1059   1.401       .  A
C1058      H1063   1.084       .  S
C1059      C1060   1.419       .  A
C1059      N1064   1.433       .  S
C1060      C1061   1.414       .  A
C1061      C1062   1.408       .  A
C1061      H1065   1.075       .  S
C1062      N1066   1.438       .  S
N1064      H1067   1.046       .  S
N1064      H1068   1.046   1_655  S
N1066      H1069   1.046       .  S
N1066      H1070   1.046       .  S
H1073      N1495   1.046       .  S
C1075      C1076   1.409       .  A
C1075      C1080   1.404       .  A
C1076      C1077   1.405       .  A
C1076      N1081   1.432       .  S
C1077      C1078   1.402       .  A
C1077      H1082   1.084       .  S
C1078      C1079   1.408       .  A
C1078      C1083   1.478       .  S
C1079      C1080   1.404       .  A
C1079      N1084   1.438       .  S
C1080      H1085   1.084       .  S
N1081      H1101   1.046       .  S
N1081      H1102   1.045       .  S
C1083      C1086   1.401       .  A
C1083      C1090   1.410       .  A
N1084      H1099   1.046       .  S
N1084      H1100   1.046       .  S
C1086      C1087   1.402       .  A
C1086      H1091   1.084       .  S
C1087      C1088   1.407       .  A
C1087      N1092   1.432       .  S
C1088      C1089   1.401       .  A
C1089      C1090   1.407       .  A
C1089      H1093   1.084       .  S
C1090      N1094   1.437       .  S
N1092      H1095   1.046   1_655  S
N1092      H1096   1.045       .  S
N1094      H1097   1.046       .  S
N1094      H1098   1.045       .  S
C1103      C1104   1.410       .  A
C1103      C1108   1.409       .  A
C1104      C1105   1.403       .  A
C1104      N1109   1.432       .  S
C1105      C1106   1.405       .  A
C1105      H1110   1.084       .  S
C1106      C1107   1.412       .  A
C1106      C1111   1.494       .  S
C1107      C1108   1.411       .  A
C1107      N1112   1.437       .  S
C1108      H1113   1.083       .  S
N1109      H1129   1.045       .  S
N1109      H1130   1.046       .  S
C1111      C1114   1.405       .  A
C1111      C1118   1.411       .  A
N1112      H1127   1.046       .  S
N1112      H1128   1.045       .  S
C1114      C1115   1.407       .  A
C1114      H1119   1.084       .  S
C1115      C1116   1.419       .  A
C1115      N1120   1.438       .  S
C1116      C1117   1.405       .  A
C1117      C1118   1.405       .  A
C1117      H1121   1.082       .  S
C1118      N1122   1.438       .  S
N1120      H1123   1.046       .  S
N1120      H1124   1.043       .  S
N1122      H1125   1.046       .  S
N1122      H1126   1.045       .  S
C1131      C1132   1.408       .  A
C1131      C1136   1.405       .  A
C1132      C1133   1.405       .  A
C1132      N1137   1.432       .  S
C1133      C1134   1.405       .  A
C1133      H1138   1.084       .  S
C1134      C1135   1.411       .  A
C1134      C1139   1.488       .  S
C1135      C1136   1.405       .  A
C1135      N1140   1.438       .  S
C1136      H1141   1.081       .  S
N1137      H1157   1.046       .  S
N1137      H1158   1.045       .  S
C1139      C1142   1.403       .  A
C1139      C1146   1.411       .  A
N1140      H1155   1.046       .  S
N1140      H1156   1.045       .  S
C1142      C1143   1.405       .  A
C1142      H1147   1.084       .  S
C1143      C1144   1.413       .  A
C1143      N1148   1.432       .  S
C1144      C1145   1.407       .  A
C1145      C1146   1.407       .  A
C1145      H1149   1.083       .  S
C1146      N1150   1.438       .  S
N1148      H1151   1.046       .  S
N1148      H1152   1.046       .  S
N1150      H1153   1.045       .  S
N1150      H1154   1.046       .  S
C1159      C1160   1.411       .  A
C1159      C1164   1.405       .  A
C1160      C1161   1.407       .  A
C1160      N1165   1.432       .  S
C1161      C1162   1.403       .  A
C1161      H1166   1.084       .  S
C1162      C1163   1.403       .  A
C1162      C1167   1.480       .  S
C1163      C1164   1.401       .  A
C1163      N1168   1.432       .  S
C1164      H1169   1.080       .  S
N1165      H1185   1.045       .  S
N1165      H1186   1.046       .  S
C1167      C1170   1.399       .  A
C1167      C1174   1.407       .  A
N1168      H1183   1.046       .  S
N1168      H1184   1.046       .  S
C1170      C1171   1.399       .  A
C1170      H1175   1.084       .  S
C1171      C1172   1.419       .  A
C1171      N1176   1.439       .  S
C1172      C1173   1.405       .  A
C1173      C1174   1.411       .  A
C1173      H1177   1.082       .  S
C1174      N1178   1.437       .  S
N1176      H1179   1.045       .  S
N1176      H1180   1.042       .  S
N1178      H1181   1.046       .  S
N1178      H1182   1.046       .  S
C1187      C1188   1.412       .  A
C1187      C1192   1.405       .  A
C1188      C1189   1.403       .  A
C1188      N1193   1.431       .  S
C1189      C1190   1.400       .  A
C1189      H1194   1.084       .  S
C1190      C1191   1.408       .  A
C1190      C1195   1.481       .  S
C1191      C1192   1.405       .  A
C1191      N1196   1.432       .  S
C1192      H1197   1.084       .  S
N1193      H1213   1.046       .  S
N1193      H1214   1.046       .  S
C1195      C1198   1.398       .  A
C1195      C1202   1.410       .  A
N1196      H1211   1.046       .  S
N1196      H1212   1.046       .  S
C1198      C1199   1.399       .  A
C1198      H1203   1.084       .  S
C1199      C1200   1.416       .  A
C1199      N1204   1.433       .  S
C1200      C1201   1.409       .  A
C1201      C1202   1.413       .  A
C1201      H1205   1.083       .  S
C1202      N1206   1.437       .  S
N1204      H1207   1.046       .  S
N1204      H1208   1.046       .  S
N1206      H1209   1.045       .  S
N1206      H1210   1.046       .  S
C1215      C1216   1.413       .  A
C1215      C1220   1.409       .  A
C1216      C1217   1.403       .  A
C1216      N1221   1.431       .  S
C1217      C1218   1.403       .  A
C1217      H1222   1.084       .  S
C1218      C1219   1.407       .  A
C1218      C1223   1.484       .  S
C1219      C1220   1.407       .  A
C1219      N1224   1.437       .  S
C1220      H1225   1.083       .  S
N1221      H1242   1.045       .  S
C1223      C1226   1.404       .  A
C1223      C1230   1.408       .  A
N1224      H1239   1.045       .  S
N1224      H1240   1.045       .  S
C1226      C1227   1.404       .  A
C1226      H1231   1.084       .  S
C1227      C1228   1.417       .  A
C1227      N1232   1.438       .  S
C1228      C1229   1.405       .  A
C1229      C1230   1.401       .  A
C1229      H1233   1.081       .  S
C1230      N1234   1.438       .  S
N1232      H1235   1.046       .  S
N1232      H1236   1.043       .  S
N1234      H1237   1.046       .  S
N1234      H1238   1.046       .  S
C1243      C1244   1.413       .  A
C1243      C1248   1.408       .  A
C1244      C1245   1.407       .  A
C1244      N1249   1.437       .  S
C1245      C1246   1.402       .  A
C1245      H1250   1.084       .  S
C1246      C1247   1.408       .  A
C1246      C1251   1.480       .  S
C1247      C1248   1.398       .  A
C1247      N1252   1.432       .  S
C1248      H1253   1.081       .  S
N1249      H1269   1.044       .  S
N1249      H1270   1.046       .  S
C1251      C1254   1.403       .  A
C1251      C1258   1.405       .  A
N1252      H1267   1.045       .  S
N1252      H1268   1.045       .  S
C1254      C1255   1.410       .  A
C1254      H1259   1.084       .  S
C1255      C1256   1.413       .  A
C1255      N1260   1.432       .  S
C1256      C1257   1.404       .  A
C1257      C1258   1.399       .  A
C1257      H1261   1.084       .  S
C1258      N1262   1.433       .  S
N1260      H1263   1.046       .  S
N1260      H1264   1.045       .  S
N1262      H1265   1.046       .  S
N1262      H1266   1.046       .  S
C1271      C1276   1.404   1_655  A
C1272      C1273   1.410       .  A
C1272      N1277   1.432       .  S
C1273      C1274   1.405       .  A
C1273      H1278   1.084       .  S
C1274      C1279   1.487       .  S
C1275      C1276   1.403       .  A
C1275      N1280   1.433       .  S
C1276      H1281   1.084   1_455  S
N1277      H1298   1.046       .  S
C1279      C1282   1.398       .  A
C1279      C1286   1.409       .  A
N1280      H1295   1.046       .  S
C1282      C1283   1.402       .  A
C1282      H1287   1.084       .  S
C1283      C1284   1.413       .  A
C1283      N1288   1.427       .  S
C1284      C1285   1.406       .  A
C1285      C1286   1.407       .  A
C1285      H1289   1.084       .  S
C1286      N1290   1.432       .  S
N1288      H1291   1.046       .  S
N1288      H1292   1.045       .  S
N1290      H1293   1.046       .  S
N1290      H1294   1.045       .  S
C1299      C1300   1.419       .  A
C1299      C1304   1.410       .  A
C1300      C1301   1.401       .  A
C1301      C1302   1.400       .  A
C1301      H1306   1.084       .  S
C1302      C1303   1.412       .  A
C1302      C1307   1.493       .  S
C1303      C1304   1.414       .  A
C1303      N1308   1.437       .  S
C1304      H1309   1.083       .  S
N1305      H1325   1.046       .  S
N1305      H1326   1.046       .  S
C1307      C1310   1.401       .  A
C1307      C1314   1.413       .  A
N1308      H1323   1.046       .  S
N1308      H1324   1.046       .  S
C1310      C1311   1.403       .  A
C1310      H1315   1.084       .  S
C1311      C1312   1.411       .  A
C1311      N1316   1.427       .  S
C1312      C1313   1.406       .  A
C1313      C1314   1.410       .  A
C1313      H1317   1.084       .  S
C1314      N1318   1.437       .  S
N1316      H1319   1.046       .  S
N1316      H1320   1.046       .  S
N1318      H1321   1.046       .  S
N1318      H1322   1.045       .  S
N1327      C1331   1.366       .  A
N1327      C1328   1.365       .  A
N1327      N1362   1.426       .  S
C1328      C1329   1.381       .  A
C1328      C1726   1.493       .  S
C1329      C1330   1.373       .  A
C1329      H1332   1.083       .  S
C1330      C1331   1.382       .  A
C1330      H1333   1.083       .  S
C1331      C1754   1.492       .  S
N1334      C1338   1.361       .  A
N1334      C1335   1.361       .  A
N1334      N1341   1.425       .  S
C1335      C1336   1.383       .  A
C1335      C1685   1.489       .  S
C1336      C1337   1.375       .  A
C1336      H1339   1.082       .  S
C1337      C1338   1.382       .  A
C1337      H1340   1.083       .  S
C1338      C1670   1.490       .  S
N1341      C1345   1.363       .  A
N1341      C1342   1.362       .  A
C1342      C1343   1.382       .  A
C1342      C1601   1.491       .  S
C1343      C1344   1.376       .  A
C1343      H1346   1.082       .  S
C1344      C1345   1.383       .  A
C1344      H1347   1.083       .  S
C1345      C1629   1.494       .  S
O1348     Ni1356   1.906       .  S
O1348      C1358   1.279   1_655  A
O1349     Ni1356   1.909       .  S
O1349      C1359   1.279       .  A
O1350     Ni1356   1.928       .  S
O1350      C1360   1.284       .  A
O1351     Ni1356   1.926       .  S
O1351      C1361   1.282   1_655  A
O1352     Ni1357   1.907       .  S
O1352      C1361   1.280   1_655  A
O1353     Ni1357   1.914       .  S
O1353      C1360   1.281       .  A
O1354     Ni1357   1.937       .  S
O1354      C1359   1.286       .  A
O1355     Ni1357   1.940       .  S
O1355      C1358   1.286   1_655  A
Ni1356    Ni1357   2.382       .  S
C1359      C1642   1.494       .  S
C1360      C1586   1.493       .  S
N1362      C1366   1.362       .  A
N1362      C1363   1.362       .  A
C1363      C1364   1.382       .  A
C1363      C1573   1.490       .  S
C1364      C1365   1.375       .  A
C1364      H1367   1.082       .  S
C1365      C1366   1.384       .  A
C1365      H1368   1.082       .  S
C1366      C1558   1.493       .  S
C1369      C1370   1.542       .  S
C1369      C1375   1.534       .  S
C1369      C1373   1.550       .  S
C1369      C1502   1.541       .  S
C1370      H1377   1.086       .  S
C1370      C1371   1.369       .  D
C1371      C1372   1.541       .  S
C1371      C1713   1.491       .  S
C1372      C1376   1.531       .  S
C1372      C1374   1.540       .  S
C1372      H1378   1.110       .  S
C1373      H1379   1.081       .  S
C1373      C1374   1.371       .  D
C1374      C1545   1.494       .  S
C1375      H1380   1.087       .  S
C1375      C1376   1.359       .  D
C1376      C1530   1.472       .  S
C1381      C1382   1.542       .  S
C1381      C1387   1.534       .  S
C1381      C1433   1.542       .  S
C1382      H1389   1.081       .  S
C1382      C1383   1.360       .  D
C1383      C1384   1.545       .  S
C1383      C1614   1.488       .  S
C1384      C1388   1.548       .  S
C1384      H1390   1.107       .  S
C1385      H1391   1.086       .  S
C1385      C1386   1.371       .  D
C1386      C1657   1.499       .  S
C1387      C1388   1.369       .  D
C1388      C1461   1.498       .  S
C1393      N1398   1.365       .  A
C1393      C1489   1.501   1_554  S
N1394      C1395   1.353       .  A
C1395      N1396   1.357       .  A
C1395      C1517   1.471       .  S
N1396      C1397   1.360       .  A
C1397      C1418   1.479       .  S
C1399      N1400   1.362       .  A
C1399      C1446   1.490       .  S
C1401      C1405   1.488       .  S
N1402      C1403   1.362       .  A
C1403      N1404   1.360       .  A
C1403      C1474   1.496       .  S
C1405      C1406   1.415       .  A
C1406      C1407   1.408       .  A
C1406      N1411   1.437       .  S
C1407      C1408   1.401   1_565  A
C1407      H1412   1.084       .  S
C1408      C1413   1.482       .  S
C1409      C1410   1.409       .  A
C1409      N1414   1.438   1_664  S
N1411      H1431   1.046       .  S
N1411      H1432   1.046       .  S
C1413      C1416   1.401       .  A
C1413      C1420   1.410       .  A
N1414      H1430   1.044   1_455  S
C1416      C1417   1.407       .  A
C1416      H1421   1.084   1_655  S
C1417      C1418   1.413       .  A
C1417      N1422   1.438   1_655  S
C1418      C1419   1.403       .  A
C1419      C1420   1.408       .  A
N1422      H1425   1.046       .  S
N1422      H1426   1.046       .  S
N1424      H1427   1.045       .  S
N1424      H1428   1.044       .  S
C1433      C1438   1.415       .  A
C1434      C1435   1.405       .  A
C1434      N1439   1.433       .  S
C1435      C1436   1.398       .  A
C1435      H1440   1.084       .  S
C1436      C1441   1.482       .  S
C1437      C1438   1.404       .  A
C1437      N1442   1.439       .  S
C1438      H1443   1.075       .  S
N1439      H1459   1.045       .  S
N1439      H1460   1.046       .  S
C1441      C1448   1.408       .  A
N1442      H1457   1.045       .  S
N1442      H1458   1.046       .  S
C1444      C1445   1.403       .  A
C1444      H1449   1.084       .  S
C1445      N1450   1.432       .  S
C1446      C1447   1.408       .  A
C1447      C1448   1.407       .  A
C1447      H1451   1.083       .  S
C1448      N1452   1.438       .  S
N1450      H1453   1.045       .  S
N1450      H1454   1.046       .  S
N1452      H1455   1.046       .  S
N1452      H1456   1.045       .  S
C1461      C1462   1.411       .  A
C1462      C1463   1.407       .  A
C1462      N1467   1.430       .  S
C1463      H1468   1.084       .  S
C1464      C1465   1.408       .  A
C1464      C1469   1.483       .  S
C1465      C1466   1.406       .  A
C1465      N1470   1.437       .  S
C1466      H1471   1.084       .  S
N1467      H1487   1.046       .  S
N1467      H1488   1.046       .  S
C1469      C1476   1.407       .  A
N1470      H1485   1.046       .  S
N1470      H1486   1.046       .  S
C1472      C1473   1.407       .  A
C1472      H1477   1.084       .  S
C1473      N1478   1.432       .  S
C1474      C1475   1.411       .  A
C1475      C1476   1.406       .  A
C1475      H1479   1.083       .  S
C1476      N1480   1.438       .  S
N1478      H1481   1.046       .  S
N1478      H1482   1.046       .  S
N1480      H1483   1.045       .  S
N1480      H1484   1.046       .  S
C1489      C1490   1.421       .  A
C1489      C1494   1.409       .  A
C1490      C1491   1.403       .  A
C1490      N1495   1.433   1_556  S
C1491      C1492   1.399       .  A
C1491      H1496   1.084       .  S
C1492      C1493   1.411       .  A
C1492      C1497   1.490       .  S
C1493      C1494   1.411       .  A
C1493      N1498   1.437       .  S
C1494      H1499   1.083       .  S
N1495      H1516   1.046       .  S
C1497      C1500   1.399       .  A
C1497      C1504   1.410       .  A
N1498      H1513   1.046       .  S
N1498      H1514   1.046       .  S
C1500      C1501   1.403       .  A
C1500      H1505   1.084       .  S
C1501      C1502   1.420       .  A
C1501      N1506   1.433       .  S
C1502      C1503   1.413       .  A
C1503      C1504   1.411       .  A
C1503      H1507   1.076       .  S
C1504      N1508   1.438       .  S
N1506      H1509   1.046       .  S
N1506      H1510   1.046   1_655  S
N1508      H1511   1.045       .  S
N1508      H1512   1.046       .  S
C1517      C1518   1.410       .  A
C1517      C1522   1.403       .  A
C1518      C1519   1.406       .  A
C1518      N1523   1.438       .  S
C1519      C1520   1.402       .  A
C1519      H1524   1.084       .  S
C1520      C1521   1.407       .  A
C1520      C1525   1.473       .  S
C1521      C1522   1.402       .  A
C1521      N1526   1.438       .  S
C1522      H1527   1.084       .  S
N1523      H1543   1.046       .  S
N1523      H1544   1.046       .  S
C1525      C1528   1.400       .  A
C1525      C1532   1.410       .  A
N1526      H1541   1.046       .  S
N1526      H1542   1.046       .  S
C1528      C1529   1.399       .  A
C1528      H1533   1.084       .  S
C1529      C1530   1.406       .  A
C1529      N1534   1.432       .  S
C1530      C1531   1.401       .  A
C1531      C1532   1.406       .  A
C1531      H1535   1.084       .  S
C1532      N1536   1.437       .  S
N1534      H1537   1.045   1_655  S
N1534      H1538   1.045       .  S
N1536      H1539   1.046       .  S
N1536      H1540   1.045       .  S
C1545      C1546   1.413       .  A
C1545      C1550   1.407       .  A
C1546      C1547   1.406       .  A
C1546      N1551   1.438       .  S
C1547      C1548   1.406       .  A
C1547      H1552   1.084       .  S
C1548      C1549   1.411       .  A
C1548      C1553   1.494       .  S
C1549      C1550   1.410       .  A
C1549      N1554   1.437       .  S
C1550      H1555   1.083       .  S
N1551      H1571   1.046       .  S
N1551      H1572   1.046       .  S
C1553      C1556   1.406       .  A
C1553      C1560   1.411       .  A
N1554      H1569   1.045       .  S
N1554      H1570   1.045       .  S
C1556      C1557   1.407       .  A
C1556      H1561   1.083       .  S
C1557      C1558   1.418       .  A
C1557      N1562   1.438       .  S
C1558      C1559   1.405       .  A
C1559      C1560   1.403       .  A
C1559      H1563   1.081       .  S
C1560      N1564   1.438       .  S
N1562      H1565   1.046       .  S
N1562      H1566   1.044       .  S
N1564      H1567   1.046       .  S
N1564      H1568   1.045       .  S
C1573      C1574   1.408       .  A
C1573      C1578   1.405       .  A
C1574      C1575   1.405       .  A
C1574      N1579   1.432       .  S
C1575      C1576   1.406       .  A
C1575      H1580   1.084       .  S
C1576      C1577   1.413       .  A
C1576      C1581   1.493       .  S
C1577      C1578   1.407       .  A
C1577      N1582   1.438       .  S
C1578      H1583   1.081       .  S
N1579      H1599   1.045       .  S
N1579      H1600   1.045       .  S
C1581      C1584   1.404       .  A
C1581      C1588   1.413       .  A
N1582      H1597   1.046       .  S
N1582      H1598   1.046       .  S
C1584      C1585   1.406       .  A
C1584      H1589   1.084       .  S
C1585      C1586   1.413       .  A
C1585      N1590   1.432       .  S
C1586      C1587   1.408       .  A
C1587      C1588   1.407       .  A
C1587      H1591   1.083       .  S
C1588      N1592   1.438       .  S
N1590      H1593   1.046       .  S
N1590      H1594   1.046       .  S
N1592      H1595   1.046       .  S
N1592      H1596   1.046       .  S
C1601      C1602   1.409       .  A
C1601      C1606   1.403       .  A
C1602      C1603   1.409       .  A
C1602      N1607   1.431       .  S
C1603      C1604   1.405       .  A
C1603      H1608   1.083       .  S
C1604      C1605   1.407       .  A
C1604      C1609   1.483       .  S
C1605      C1606   1.403       .  A
C1605      N1610   1.438       .  S
C1606      H1611   1.075       .  S
N1607      H1627   1.045       .  S
N1607      H1628   1.045       .  S
C1609      C1612   1.399       .  A
C1609      C1616   1.409       .  A
N1610      H1625   1.046       .  S
N1610      H1626   1.045       .  S
C1612      C1613   1.399       .  A
C1612      H1617   1.084       .  S
C1613      C1614   1.420       .  A
C1613      N1618   1.440       .  S
C1614      C1615   1.406       .  A
C1615      C1616   1.413       .  A
C1615      H1619   1.081       .  S
C1616      N1620   1.437       .  S
N1618      H1621   1.045       .  S
N1618      H1622   1.042       .  S
N1620      H1623   1.046       .  S
N1620      H1624   1.045       .  S
C1629      C1630   1.414       .  A
C1629      C1634   1.406       .  A
C1630      C1631   1.404       .  A
C1630      N1635   1.428       .  S
C1631      C1632   1.399       .  A
C1631      H1636   1.084       .  S
C1632      C1633   1.408       .  A
C1632      C1637   1.486       .  S
C1633      C1634   1.407       .  A
C1633      N1638   1.432       .  S
C1634      H1639   1.084       .  S
N1635      H1655   1.046       .  S
N1635      H1656   1.045       .  S
C1637      C1640   1.399       .  A
C1637      C1644   1.411       .  A
N1638      H1653   1.046       .  S
N1638      H1654   1.046       .  S
C1640      C1641   1.402       .  A
C1640      H1645   1.084       .  S
C1641      C1642   1.417       .  A
C1641      N1646   1.433       .  S
C1642      C1643   1.409       .  A
C1643      C1644   1.413       .  A
C1643      H1647   1.083       .  S
C1644      N1648   1.437       .  S
N1646      H1649   1.046       .  S
N1646      H1650   1.046       .  S
N1648      H1651   1.046       .  S
N1648      H1652   1.046       .  S
C1657      C1658   1.414       .  A
C1657      C1662   1.411       .  A
C1658      C1659   1.403       .  A
C1658      N1663   1.431       .  S
C1659      C1660   1.402       .  A
C1659      H1664   1.084       .  S
C1660      C1661   1.408       .  A
C1660      C1665   1.487       .  S
C1661      C1662   1.409       .  A
C1661      N1666   1.437       .  S
C1662      H1667   1.083       .  S
N1663      H1684   1.045       .  S
C1665      C1668   1.404       .  A
C1665      C1672   1.408       .  A
N1666      H1681   1.046       .  S
N1666      H1682   1.045       .  S
C1668      C1669   1.406       .  A
C1668      H1673   1.084       .  S
C1669      C1670   1.418       .  A
C1669      N1674   1.438       .  S
C1670      C1671   1.406       .  A
C1671      C1672   1.404       .  A
C1671      H1675   1.081       .  S
C1672      N1676   1.438       .  S
N1674      H1677   1.046       .  S
N1674      H1678   1.043       .  S
N1676      H1679   1.046       .  S
N1676      H1680   1.046       .  S
C1685      C1686   1.413       .  A
C1685      C1690   1.407       .  A
C1686      C1687   1.408       .  A
C1686      N1691   1.437       .  S
C1687      C1688   1.403       .  A
C1687      H1692   1.084       .  S
C1688      C1689   1.409       .  A
C1688      C1693   1.480       .  S
C1689      C1690   1.399       .  A
C1689      N1694   1.432       .  S
C1690      H1695   1.081       .  S
N1691      H1711   1.044       .  S
N1691      H1712   1.046       .  S
C1693      C1696   1.403       .  A
C1693      C1700   1.405       .  A
N1694      H1709   1.045       .  S
N1694      H1710   1.046       .  S
C1696      C1697   1.409       .  A
C1696      H1701   1.084       .  S
C1697      C1698   1.412       .  A
C1697      N1702   1.432       .  S
C1698      C1699   1.405       .  A
C1699      C1700   1.400       .  A
C1699      H1703   1.084       .  S
C1700      N1704   1.433       .  S
N1702      H1705   1.046       .  S
N1702      H1706   1.045       .  S
N1704      H1707   1.045       .  S
N1704      H1708   1.046       .  S
C1713      C1718   1.404   1_655  A
C1714      C1715   1.411       .  A
C1714      N1719   1.432       .  S
C1715      C1716   1.405       .  A
C1715      H1720   1.084       .  S
C1716      C1721   1.490       .  S
C1717      C1718   1.404       .  A
C1717      N1722   1.432       .  S
C1718      H1723   1.084   1_455  S
N1719      H1740   1.045       .  S
C1721      C1724   1.400       .  A
C1721      C1728   1.418       .  A
N1722      H1737   1.046       .  S
C1724      C1725   1.404       .  A
C1724      H1729   1.084       .  S
C1725      C1726   1.411       .  A
C1725      N1730   1.426       .  S
C1726      C1727   1.404       .  A
C1727      C1728   1.406       .  A
C1727      H1731   1.084       .  S
C1728      N1732   1.438       .  S
N1730      H1733   1.046       .  S
N1730      H1734   1.045       .  S
N1732      H1735   1.045       .  S
N1732      H1736   1.044       .  S
C1741      C1742   1.417       .  A
C1741      C1746   1.409       .  A
C1742      C1743   1.401       .  A
C1743      C1744   1.401       .  A
C1743      H1748   1.084       .  S
C1744      C1745   1.414       .  A
C1744      C1749   1.494       .  S
C1745      C1746   1.414       .  A
C1745      N1750   1.437       .  S
C1746      H1751   1.083       .  S
N1747      H1767   1.046       .  S
N1747      H1768   1.046       .  S
C1749      C1752   1.401       .  A
C1749      C1756   1.415       .  A
N1750      H1765   1.045       .  S
N1750      H1766   1.046       .  S
C1752      C1753   1.399       .  A
C1752      H1757   1.083       .  S
C1753      C1754   1.409       .  A
C1753      N1758   1.426       .  S
C1754      C1755   1.406       .  A
C1755      C1756   1.411       .  A
C1755      H1759   1.084       .  S
C1756      N1760   1.437       .  S
N1758      H1761   1.046       .  S
N1758      H1762   1.046       .  S
N1760      H1763   1.046       .  S
N1760      H1764   1.046       .  S
