geometry optimzed in LAMMPS
_audit_creation_date              2020-11-30 
_audit_creation_method            'lammps2cif' 
_symmetry_space_group_name_H-M    'P1' 
_symmetry_Int_Tables_number       1 
_symmetry_cell_setting            triclinic 
loop_ 
_symmetry_equiv_pos_as_xyz 
  x,y,z 
_cell_length_a                    51.52444278390065 
_cell_length_b                    50.809239735110516 
_cell_length_c                    44.85889806700101 
_cell_angle_alpha                 89.97771752218317 
_cell_angle_beta                  90.00524168010178 
_cell_angle_gamma                 90.05497312829009 
loop_ 
_atom_site_label 
_atom_site_type_symbol 
_atom_site_fract_x 
_atom_site_fract_y 
_atom_site_fract_z 
_atom_site_charge 
N1          N  0.23713708  0.20729677  0.42494750    -0.26610
N2          N  0.22030347  0.20267558  0.44651358    -0.34470
C3          C  0.22363400  0.22074216  0.46811465     0.01730
C4          C  0.24346063  0.23767664  0.45955978     0.07750
C5          C  0.25150014  0.22843791  0.43203399    -0.05350
H6          H  0.21206941  0.22174272  0.48820146     0.08420
H7          H  0.26670190  0.23637416  0.41805012     0.09620
Cu8        Cu  0.19313350  0.17256703  0.44424885     0.44170
Cu9        Cu  0.23939033  0.18540304  0.38631136     0.41990
Cu10       Cu  0.18980317  0.13746875  0.37246846     0.43880
N11         N  0.16789133  0.14175831  0.43504308    -0.34000
N12         N  0.16657172  0.12925253  0.40917834    -0.28250
C13         C  0.14894501  0.10979221  0.41130987    -0.04360
C14         C  0.13872209  0.11024538  0.43970388     0.07860
C15         C  0.15111950  0.13058155  0.45423922     0.01660
H16         H  0.14452289  0.09587860  0.39376629     0.09310
H17         H  0.14871281  0.13637949  0.47728678     0.08390
N18         N  0.21783772  0.14754216  0.34119489    -0.35450
N19         N  0.23678177  0.16427082  0.34716069    -0.27630
C20         C  0.25239546  0.16631023  0.32331427    -0.02870
C21         C  0.24268393  0.15032939  0.30103314     0.05740
C22         C  0.22064820  0.13879078  0.31303917     0.03830
H23         H  0.26903725  0.17924643  0.32193805     0.08940
H24         H  0.20770219  0.12502962  0.30218637     0.07770
N25         N  0.28807273  0.20628029  0.05689185    -0.26610
N26         N  0.30602373  0.20277488  0.03628546    -0.34470
C27         C  0.30306468  0.22117511  0.01497921     0.01730
C28         C  0.28219946  0.23713600  0.02260138     0.07750
C29         C  0.27324240  0.22695339  0.04937660    -0.05350
H30         H  0.31539698  0.22281909  0.99556911     0.08420
H31         H  0.25751224  0.23429360  0.06295869     0.09620
Cu32       Cu  0.33407442  0.17362093  0.03926293     0.44170
Cu33       Cu  0.28543592  0.18403700  0.09532556     0.41990
Cu34       Cu  0.33679867  0.13837572  0.11073524     0.43880
N35         N  0.35944565  0.14301202  0.04860974    -0.34000
N36         N  0.36052414  0.13040235  0.07442648    -0.28250
C37         C  0.37804149  0.11087241  0.07236838    -0.04360
C38         C  0.38844613  0.11138496  0.04406085     0.07860
C39         C  0.37626706  0.13183537  0.02950545     0.01660
H40         H  0.38216845  0.09679398  0.08984192     0.09310
H41         H  0.37875097  0.13761942  0.00645765     0.08390
N42         N  0.30807974  0.14772744  0.14140894    -0.35450
N43         N  0.28850042  0.16349333  0.13490669    -0.27630
C44         C  0.27268452  0.16525515  0.15861236    -0.02870
C45         C  0.28292338  0.15010824  0.18133456     0.05740
C46         C  0.30546985  0.13934966  0.16973739     0.03830
H47         H  0.25555889  0.17751798  0.15960985     0.08940
H48         H  0.31893386  0.12640098  0.18100498     0.07770
N49         N  0.73733200  0.20869999  0.05637937    -0.26610
N50         N  0.71975968  0.20458952  0.03548537    -0.34470
C51         C  0.72260264  0.22292432  0.01406793     0.01730
C52         C  0.74298812  0.23949788  0.02193320     0.07750
C53         C  0.75177640  0.22969780  0.04897199    -0.05350
H54         H  0.71044131  0.22415293  0.99448133     0.08420
H55         H  0.76728255  0.23732687  0.06270033     0.09620
Cu56       Cu  0.69243529  0.17463251  0.03829343     0.44170
Cu57       Cu  0.74023496  0.18660847  0.09487476     0.41990
Cu58       Cu  0.69094827  0.13853643  0.10952338     0.43880
N59         N  0.66766873  0.14343601  0.04765348    -0.34000
N60         N  0.66705000  0.13054030  0.07331697    -0.28250
C61         C  0.64965345  0.11085809  0.07130508    -0.04360
C62         C  0.63884618  0.11156101  0.04320004     0.07860
C63         C  0.65066603  0.13228525  0.02870708     0.01660
H64         H  0.64580396  0.09661732  0.08870051     0.09310
H65         H  0.64774328  0.13834632  0.00582039     0.08390
N66         N  0.71932573  0.14867391  0.14036388    -0.35450
N67         N  0.73809579  0.16553873  0.13416467    -0.27630
C68         C  0.75385533  0.16775292  0.15787457    -0.02870
C69         C  0.74444879  0.15171195  0.18030894     0.05740
C70         C  0.72242821  0.13996639  0.16850318     0.03990
H71         H  0.77037821  0.18085812  0.15905536     0.08940
H72         H  0.70964802  0.12613065  0.17950166     0.07770
N73         N  0.78929528  0.20829868  0.42422882    -0.26610
N74         N  0.80678547  0.20446906  0.44528413    -0.34470
C75         C  0.80359871  0.22279194  0.46662311     0.01730
C76         C  0.78309168  0.23907308  0.45853474     0.07750
C77         C  0.77457109  0.22912502  0.43145717    -0.05350
H78         H  0.81566873  0.22428673  0.48626477     0.08420
H79         H  0.75893045  0.23643896  0.41771697     0.09620
Cu80       Cu  0.83447672  0.17488643  0.44290037     0.44170
Cu81       Cu  0.78692373  0.18602813  0.38579880     0.41990
Cu82       Cu  0.83787963  0.13968839  0.37138002     0.43880
N83         N  0.85966018  0.14398901  0.43398654    -0.34000
N84         N  0.86099077  0.13142282  0.40816579    -0.28250
C85         C  0.87837367  0.11178672  0.41048326    -0.04360
C86         C  0.88843479  0.11217736  0.43896072     0.07860
C87         C  0.87618406  0.13267122  0.45334857     0.01660
H88         H  0.88268869  0.09776147  0.39302826     0.09310
H89         H  0.87846872  0.13844100  0.47642337     0.08390
N90         N  0.80963802  0.14931649  0.34018932    -0.35450
N91         N  0.79013693  0.16527768  0.34637955    -0.27630
C92         C  0.77450765  0.16704683  0.32250573    -0.02870
C93         C  0.78481008  0.15173007  0.29999946     0.05740
C94         C  0.80719372  0.14085659  0.31187053     0.03830
H95         H  0.75745524  0.17939754  0.32125004     0.08940
H96         H  0.82061606  0.12773083  0.30081607     0.07770
N97         N  0.23880252  0.86122370  0.55667255    -0.26610
N98         N  0.22074764  0.86488492  0.53620812    -0.34470
C99         C  0.22311479  0.84619068  0.51515164     0.01730
C100        C  0.24368791  0.82983373  0.52275713     0.07750
C101        C  0.25311157  0.84012837  0.54928498    -0.05350
H102        H  0.21053997  0.84460419  0.49594316     0.08420
H103        H  0.26881538  0.83260242  0.56278360     0.09620
Cu104      Cu  0.19320744  0.89455053  0.53898796     0.44170
Cu105      Cu  0.24218407  0.88387075  0.59481852     0.41990
Cu106      Cu  0.19151077  0.93064356  0.60971361     0.43880
N107        N  0.16803919  0.92537754  0.54809798    -0.34000
N108        N  0.16733485  0.93833341  0.57369515    -0.28250
C109        C  0.14970098  0.95776310  0.57165804    -0.04360
C110        C  0.13882240  0.95681453  0.54359238     0.07860
C111        C  0.15085661  0.93621897  0.52915354     0.01660
H112        H  0.14573875  0.97200802  0.58899499     0.09310
H113        H  0.14795726  0.93005054  0.50630313     0.08390
N114        N  0.22015187  0.92108245  0.64043738    -0.35450
N115        N  0.23948171  0.90492470  0.63417752    -0.27630
C116        C  0.25512691  0.90299226  0.65804261    -0.02870
C117        C  0.24501174  0.91841145  0.68060903     0.05740
C118        C  0.22274140  0.92952741  0.66873623     0.03830
H119        H  0.27197006  0.89035136  0.65930721     0.08940
H120        H  0.20937810  0.94267722  0.67984825     0.07770
N121        N  0.28869669  0.86011916  0.92509339    -0.26610
N122        N  0.30579187  0.86452054  0.94645149    -0.34470
C123        C  0.30277960  0.84620374  0.96785831     0.01730
C124        C  0.28286059  0.82931219  0.95946628     0.07750
C125        C  0.27444538  0.83887513  0.93218177    -0.05350
H126        H  0.31465007  0.84501523  0.98769414     0.08420
H127        H  0.25913487  0.83103339  0.91829635     0.09620
Cu128      Cu  0.33295379  0.89466078  0.94431801     0.44170
Cu129      Cu  0.28618181  0.88231306  0.88653621     0.41990
Cu130      Cu  0.33606588  0.93025562  0.87308126     0.43880
N131        N  0.35810289  0.92565414  0.93552104    -0.34000
N132        N  0.35932950  0.93838175  0.90978467    -0.28250
C133        C  0.37688730  0.95789350  0.91206836    -0.04360
C134        C  0.38716672  0.95724760  0.94043812     0.07860
C135        C  0.37486856  0.93673505  0.95479696     0.01660
H136        H  0.38124645  0.97195029  0.89463951     0.09310
H137        H  0.37735581  0.93073530  0.97777224     0.08390
N138        N  0.30817738  0.92024696  0.84160846    -0.35450
N139        N  0.28911647  0.90358130  0.84735475    -0.27630
C140        C  0.27374436  0.90160751  0.82326792    -0.02870
C141        C  0.28375824  0.91754334  0.80108170     0.05740
C142        C  0.30569527  0.92899706  0.81340348     0.03830
H143        H  0.25708505  0.88871785  0.82164846     0.08940
H144        H  0.31882326  0.94268535  0.80271226     0.07770
C145        C  0.97325631  0.03403648  0.49120288     0.03810
C146        C  0.95997949  0.05487673  0.47751915    -0.12340
C147        C  0.93279365  0.05516219  0.47731890     0.01310
C148        C  0.91893867  0.03465028  0.49077907    -0.10870
C149        C  0.93215001  0.01383665  0.50444769     0.03800
C150        C  0.95933161  0.01350705  0.50467190    -0.10290
H151        H  0.97073571  0.07075560  0.46708576     0.09390
H152        H  0.89789107  0.03488380  0.49061540     0.06920
H153        H  0.96958448  0.99738982  0.51526713     0.06770
C154        C  0.05246829  0.03345913  0.49161841     0.03810
C155        C  0.06611919  0.05401485  0.47783348    -0.12340
C156        C  0.09329965  0.05396905  0.47788131     0.01310
C157        C  0.10678735  0.03341776  0.49168802    -0.10870
C158        C  0.09321313  0.01288094  0.50546490     0.03800
C159        C  0.06602228  0.01287363  0.50544408    -0.10290
H160        H  0.05565376  0.06993679  0.46713371     0.09390
H161        H  0.12783752  0.03340728  0.49171267     0.06920
H162        H  0.05548148  0.99697146  0.51611770     0.06770
N163        N  0.73687219  0.85998636  0.92440734    -0.26610
N164        N  0.71999454  0.86451862  0.94593600    -0.34470
C165        C  0.72336148  0.84648238  0.96757296     0.01730
C166        C  0.74329931  0.82966138  0.95913184     0.07750
C167        C  0.75133791  0.83896135  0.93159109    -0.05350
H168        H  0.71176373  0.84546948  0.98763188     0.08420
H169        H  0.76657274  0.83113072  0.91761430     0.09620
Cu170      Cu  0.69282447  0.89459020  0.94369282     0.44170
Cu171      Cu  0.73898813  0.88180989  0.88563954     0.41990
Cu172      Cu  0.68966945  0.93008821  0.87215642     0.43880
N173        N  0.66783895  0.92564264  0.93475799    -0.34000
N174        N  0.66660047  0.93831262  0.90898140    -0.28250
C175        C  0.64917966  0.95791278  0.91128697    -0.04360
C176        C  0.63900911  0.95738680  0.93970591     0.07860
C177        C  0.65122035  0.93685426  0.95407260     0.01660
H178        H  0.64485537  0.97195548  0.89383991     0.09310
H179        H  0.64879077  0.93093685  0.97708455     0.08390
N180        N  0.71746864  0.91988906  0.84068486    -0.35450
N181        N  0.73628002  0.90298794  0.84646717    -0.27630
C182        C  0.75176035  0.90092969  0.82250709    -0.02870
C183        C  0.74211137  0.91709519  0.80034972     0.05740
C184        C  0.72024271  0.92875111  0.81255703     0.03830
H185        H  0.76830009  0.88790494  0.82099557     0.08940
H186        H  0.70740258  0.94269824  0.80187326     0.07770
N187        N  0.78761341  0.86069359  0.55668645    -0.26610
N188        N  0.80472033  0.86512201  0.53534869    -0.34470
C189        C  0.80168719  0.84685016  0.51391408     0.01730
C190        C  0.78176394  0.82997060  0.52231067     0.07750
C191        C  0.77336012  0.83946514  0.54959474    -0.05350
H192        H  0.81352714  0.84567762  0.49405360     0.08420
H193        H  0.75800379  0.83162604  0.56342386     0.09620
Cu194      Cu  0.83189351  0.89523635  0.53761298     0.44170
Cu195      Cu  0.78494646  0.88291435  0.59511432     0.41990
Cu196      Cu  0.83497653  0.93043759  0.60916613     0.43880
N197        N  0.85709062  0.92610861  0.54672743    -0.34000
N198        N  0.85832130  0.93866306  0.57256366    -0.28250
C199        C  0.87592408  0.95814702  0.57045510    -0.04360
C200        C  0.88622679  0.95766316  0.54209890     0.07860
C201        C  0.87390120  0.93727628  0.52756394     0.01660
H202        H  0.88028972  0.97208537  0.58799212     0.09310
H203        H  0.87639792  0.93142500  0.50454654     0.08390
N204        N  0.80677025  0.92058183  0.64031666    -0.35450
N205        N  0.78760630  0.90412924  0.63426580    -0.27630
C206        C  0.77196961  0.90222306  0.65812073    -0.02870
C207        C  0.78192425  0.91796779  0.68047551     0.05740
C208        C  0.80410585  0.92923626  0.66852763     0.03830
H209        H  0.75520265  0.88945443  0.65950132     0.08940
H210        H  0.81728601  0.94270017  0.67948699     0.07770
C211        C  0.55295835  0.03402652  0.99184005     0.03810
C212        C  0.56648639  0.05473164  0.00549220    -0.12340
C213        C  0.59367315  0.05487449  0.00540251     0.01310
C214        C  0.60727722  0.03435839  0.99168704    -0.10870
C215        C  0.59381223  0.01368228  0.97804815     0.03800
C216        C  0.56663003  0.01349302  0.97811366    -0.10290
H217        H  0.55592476  0.07061951  0.01611436     0.09390
H218        H  0.62832651  0.03448601  0.99162090     0.06920
H219        H  0.55618046  0.99748244  0.96753931     0.06770
C220        C  0.47375248  0.03381571  0.99208498     0.03810
C221        C  0.46029883  0.05448743  0.00582440    -0.12340
C222        C  0.43312052  0.05457188  0.00593751     0.01310
C223        C  0.41943356  0.03402604  0.99233606    -0.10870
C224        C  0.43281738  0.01337031  0.97860067     0.03800
C225        C  0.46000713  0.01324055  0.97846421    -0.10290
H226        H  0.47091663  0.07040636  0.01635635     0.09390
H227        H  0.39838443  0.03412057  0.99242317     0.06920
H228        H  0.47040116  0.99725596  0.96781083     0.06770
N229        N  0.28986892  0.35851690  0.55785283    -0.26610
N230        N  0.30658312  0.36329959  0.53621093    -0.34470
C231        C  0.30327461  0.34525890  0.51457324     0.01730
C232        C  0.28358469  0.32817753  0.52318578     0.07750
C233        C  0.27560519  0.33730660  0.55078163    -0.05350
H234        H  0.31474965  0.34439039  0.49441108     0.08420
H235        H  0.26050121  0.32925969  0.56482318     0.09620
Cu236      Cu  0.33351818  0.39363724  0.53843300     0.44170
Cu237      Cu  0.28759276  0.38031635  0.59654496     0.41990
Cu238      Cu  0.33664725  0.42879502  0.61026308     0.43880
N239        N  0.35848785  0.42469137  0.54761264    -0.34000
N240        N  0.35973371  0.43721399  0.57347407    -0.28250
C241        C  0.37718298  0.45683666  0.57129991    -0.04360
C242        C  0.38736968  0.45647435  0.54288520     0.07860
C243        C  0.37513044  0.43602156  0.52838107     0.01660
H244        H  0.38150836  0.47079246  0.58883215     0.09310
H245        H  0.37755471  0.43024162  0.50533016     0.08390
N246        N  0.30876268  0.41843566  0.64161243    -0.35450
N247        N  0.29001254  0.40147451  0.63568385    -0.27630
C248        C  0.27440112  0.39931300  0.65951678    -0.02870
C249        C  0.28390669  0.41546322  0.68175647     0.05740
C250        C  0.30582619  0.42722565  0.66973909     0.03830
H251        H  0.25787890  0.38622011  0.66089538     0.08940
H252        H  0.31858282  0.44119373  0.68054849     0.07770
N253        N  0.23741171  0.35979022  0.92563136    -0.26610
N254        N  0.21942342  0.36331364  0.94619181    -0.34470
C255        C  0.22228683  0.34486063  0.96746413     0.01730
C256        C  0.24312830  0.32885584  0.95986155     0.07750
C257        C  0.25216459  0.33906193  0.93313584    -0.05350
H258        H  0.20992178  0.34322054  0.98684748     0.08420
H259        H  0.26791164  0.33171708  0.91958371     0.09620
Cu260      Cu  0.19149805  0.39260904  0.94318895     0.44170
Cu261      Cu  0.24026770  0.38208548  0.88726612     0.41990
Cu262      Cu  0.18914337  0.42786242  0.87164485     0.43880
N263        N  0.16632696  0.42338194  0.93373038    -0.34000
N264        N  0.16538404  0.43597727  0.90789547    -0.28250
C265        C  0.14797345  0.45561188  0.90987545    -0.04360
C266        C  0.13749097  0.45518995  0.93814711     0.07860
C267        C  0.14952019  0.43467917  0.95276667     0.01660
H268        H  0.14397131  0.46969786  0.89237126     0.09310
H269        H  0.14694305  0.42892984  0.97581202     0.08390
N270        N  0.21791138  0.41841821  0.84105723    -0.35450
N271        N  0.23743465  0.40261601  0.84766287    -0.27630
C272        C  0.25332957  0.40079652  0.82403204    -0.02870
C273        C  0.24319689  0.41593956  0.80124699     0.05740
C274        C  0.22063106  0.42675654  0.81272586     0.03830
H275        H  0.27043034  0.38849255  0.82312113     0.08940
H276        H  0.20723118  0.43971748  0.80137552     0.07770
N277        N  0.28541051  0.70564076  0.42625958    -0.26610
N278        N  0.30330398  0.70181441  0.44687318    -0.34470
C279        C  0.30077522  0.72033999  0.46809438     0.01730
C280        C  0.28026335  0.73675622  0.46044576     0.07750
C281        C  0.27104305  0.72667567  0.43372009    -0.05350
H282        H  0.31320871  0.72178342  0.48743884     0.08420
H283        H  0.25546023  0.73433078  0.42012883     0.09620
Cu284      Cu  0.33088683  0.67219813  0.44407843     0.44170
Cu285      Cu  0.28233086  0.68331123  0.38783388     0.41990
Cu286      Cu  0.33288354  0.63634454  0.37322537     0.43880
N287        N  0.35617548  0.64149128  0.43492659    -0.34000
N288        N  0.35697926  0.62861943  0.40928016    -0.28250
C289        C  0.37469891  0.60927049  0.41126831    -0.04360
C290        C  0.38552504  0.61018288  0.43935738     0.07860
C291        C  0.37337950  0.63067362  0.45386038     0.01660
H292        H  0.37877079  0.59511552  0.39387040     0.09310
H293        H  0.37623300  0.63679624  0.47673418     0.08390
N294        N  0.30446839  0.64606507  0.34231713    -0.35450
N295        N  0.28521700  0.66236553  0.34841040    -0.27630
C296        C  0.26975265  0.66441926  0.32440230    -0.02870
C297        C  0.27990038  0.64891173  0.30192252     0.05740
C298        C  0.30199962  0.63762188  0.31400778     0.03830
H299        H  0.25299995  0.67717188  0.32300507     0.08940
H300        H  0.31533300  0.62434965  0.30303653     0.07770
N301        N  0.23833518  0.70671037  0.05685611    -0.26610
N302        N  0.22128483  0.70235738  0.03543667    -0.34470
C303        C  0.22437834  0.72067887  0.01405806     0.01730
C304        C  0.24430578  0.73752857  0.02251909     0.07750
C305        C  0.25264024  0.72793871  0.04982728    -0.05350
H306        H  0.21254841  0.72189940  0.99419319     0.08420
H307        H  0.26792344  0.73575841  0.06376872     0.09620
Cu308      Cu  0.19402829  0.67230679  0.03738990     0.44170
Cu309      Cu  0.24066175  0.68448625  0.09542223     0.41990
Cu310      Cu  0.19027656  0.63696156  0.10862444     0.43880
N311        N  0.16871746  0.64141840  0.04598659    -0.34000
N312        N  0.16725760  0.62877353  0.07175586    -0.28250
C313        C  0.14966825  0.60930338  0.06937344    -0.04360
C314        C  0.13961371  0.60989036  0.04089805     0.07860
C315        C  0.15207210  0.63032692  0.02658220     0.01660
H316        H  0.14513212  0.59531725  0.08681575     0.09310
H317        H  0.14976988  0.63627045  0.00356273     0.08390
N318        N  0.21802210  0.64686739  0.14028345    -0.35450
N319        N  0.23729478  0.66331059  0.13463642    -0.27630
C320        C  0.25249880  0.66522615  0.15887231    -0.02870
C321        C  0.24213535  0.64950369  0.18103798     0.05740
C322        C  0.22018317  0.63822881  0.16856413     0.03830
H323        H  0.26926249  0.67796328  0.16061441     0.08940
H324        H  0.20681972  0.62474915  0.17921047     0.07770
N325        N  0.73622898  0.36033801  0.55661791    -0.26610
N326        N  0.71887648  0.36431758  0.53544915    -0.34470
C327        C  0.72219171  0.34613318  0.51398184     0.01730
C328        C  0.74264372  0.32979141  0.52210361     0.07750
C329        C  0.75099424  0.33956052  0.54933425    -0.05350
H330        H  0.71024741  0.34477399  0.49422650     0.08420
H331        H  0.76654152  0.33215501  0.56314985     0.09620
Cu332      Cu  0.69121334  0.39392426  0.53785558     0.44170
Cu333      Cu  0.73843551  0.38238114  0.59522331     0.41990
Cu334      Cu  0.68810713  0.42945862  0.60923452     0.43880
N335        N  0.66605059  0.42483247  0.54678731    -0.34000
N336        N  0.66483680  0.43751366  0.57254402    -0.28250
C337        C  0.64741245  0.45710901  0.57024065    -0.04360
C338        C  0.63720763  0.45657552  0.54183913     0.07860
C339        C  0.64940869  0.43603912  0.52747850     0.01660
H340        H  0.64316559  0.47120227  0.58764759     0.09310
H341        H  0.64700991  0.43016563  0.50445264     0.08390
N342        N  0.71626231  0.41976071  0.64047486    -0.35450
N343        N  0.73545134  0.40335746  0.63450950    -0.27630
C344        C  0.75105477  0.40155635  0.65840082    -0.02870
C345        C  0.74108817  0.41736553  0.68069096     0.05740
C346        C  0.71891468  0.42854473  0.66863670     0.03830
H347        H  0.76789475  0.38892084  0.65978341     0.08940
H348        H  0.70577578  0.44211351  0.67945094     0.07770
N349        N  0.78682473  0.36274928  0.92478806    -0.26610
N350        N  0.80485743  0.36628330  0.94529691    -0.34470
C351        C  0.80215711  0.34770319  0.96644913     0.01730
C352        C  0.78138795  0.33154715  0.95882507     0.07750
C353        C  0.77221043  0.34186041  0.93219867    -0.05350
H354        H  0.81472434  0.34598801  0.98564499     0.08420
H355        H  0.75633740  0.33463395  0.91874518     0.09620
Cu356      Cu  0.83271181  0.39569234  0.94234999     0.44170
Cu357      Cu  0.78380640  0.38528977  0.88661170     0.41990
Cu358      Cu  0.83500780  0.43124695  0.87104832     0.43880
N359        N  0.85798557  0.42643767  0.93300398    -0.34000
N360        N  0.85891702  0.43916333  0.90725082    -0.28250
C361        C  0.87650203  0.45867266  0.90926838    -0.04360
C362        C  0.88710216  0.45802297  0.93748185     0.07860
C363        C  0.87496835  0.43751478  0.95202276     0.01660
H364        H  0.88058639  0.47279436  0.89181912     0.09310
H365        H  0.87763623  0.43158661  0.97499524     0.08390
N366        N  0.80621858  0.42174621  0.84046856    -0.35450
N367        N  0.78668607  0.40590819  0.84705344    -0.27630
C368        C  0.77087602  0.40396236  0.82335430    -0.02870
C369        C  0.78107316  0.41904774  0.80054282     0.05740
C370        C  0.80358658  0.42997531  0.81208488     0.03830
H371        H  0.75382999  0.39155023  0.82239247     0.08940
H372        H  0.81704895  0.44288084  0.80071562     0.07770
C373        C  0.47268048  0.53413706  0.49045693     0.03810
C374        C  0.45883561  0.55462443  0.47684376    -0.12340
C375        C  0.43165293  0.55436636  0.47710747     0.01310
C376        C  0.41836595  0.53367603  0.49095630    -0.10870
C377        C  0.43214135  0.51321331  0.50455712     0.03800
C378        C  0.45932498  0.51341840  0.50432095    -0.10290
H379        H  0.46914824  0.57064698  0.46610566     0.09390
H380        H  0.39731703  0.53349553  0.49114178     0.06920
H381        H  0.47001837  0.49756699  0.51485460     0.06770
C382        C  0.55188714  0.53426077  0.48998775     0.03810
C383        C  0.56534433  0.51351791  0.50361239    -0.12340
C384        C  0.59252412  0.51335627  0.50357888     0.01310
C385        C  0.60620544  0.53389533  0.48994582    -0.10870
C386        C  0.59281973  0.55462095  0.47632941     0.03800
C387        C  0.56563063  0.55482900  0.47633670    -0.10290
H388        H  0.55472838  0.49761341  0.51418623     0.09390
H389        H  0.62725455  0.53375406  0.48994025     0.06920
H390        H  0.55523664  0.57087697  0.46579020     0.06770
N391        N  0.73689229  0.70816964  0.42439951    -0.26610
N392        N  0.71984041  0.70360924  0.44575686    -0.34470
C393        C  0.72287018  0.72181266  0.46727472     0.01730
C394        C  0.74273592  0.73877812  0.45890124     0.07750
C395        C  0.75110818  0.72940014  0.43155461    -0.05350
H396        H  0.71107180  0.72288066  0.48717554     0.08420
H397        H  0.76642092  0.73731616  0.41771888     0.09620
Cu398      Cu  0.69279174  0.67337818  0.44333729     0.44170
Cu399      Cu  0.73959520  0.68610015  0.38588410     0.41990
Cu400      Cu  0.69030397  0.63786775  0.37179458     0.43880
N401        N  0.66775421  0.64239833  0.43405356    -0.34000
N402        N  0.66674284  0.62973777  0.40826714    -0.28250
C403        C  0.64914879  0.61023588  0.41030166    -0.04360
C404        C  0.63862232  0.61081909  0.43854924     0.07860
C405        C  0.65081169  0.63127983  0.45310040     0.01660
H406        H  0.64493467  0.59622231  0.39279286     0.09310
H407        H  0.64813071  0.63721837  0.47606159     0.08390
N408        N  0.71853278  0.64794955  0.34073515    -0.35450
N409        N  0.73736667  0.66478505  0.34678568    -0.27630
C410        C  0.75310649  0.66682634  0.32303958    -0.02870
C411        C  0.74359327  0.65073820  0.30073597     0.05740
C412        C  0.72154137  0.63913604  0.31262916     0.03830
H413        H  0.76967843  0.67985917  0.32172287     0.08940
H414        H  0.70869627  0.62531406  0.30171729     0.07770
N415        N  0.78958000  0.70851883  0.05741089    -0.26610
N416        N  0.80670622  0.70423881  0.03607373    -0.34470
C417        C  0.80351244  0.72245106  0.01459624     0.01730
C418        C  0.78343519  0.73913010  0.02294413     0.07750
C419        C  0.77512915  0.72956976  0.05026379    -0.05350
H420        H  0.81531752  0.72367957  0.99471240     0.08420
H421        H  0.75971080  0.73723484  0.06409438     0.09620
Cu422      Cu  0.83398656  0.67427579  0.03833802     0.44170
Cu423      Cu  0.78716134  0.68632300  0.09589325     0.41990
Cu424      Cu  0.83715373  0.63875746  0.10977458     0.43880
N425        N  0.85906434  0.64329444  0.04722967    -0.34000
N426        N  0.86032323  0.63060842  0.07299312    -0.28250
C427        C  0.87776023  0.61102180  0.07065419    -0.04360
C428        C  0.88792366  0.61157906  0.04222649     0.07860
C429        C  0.87568389  0.63211368  0.02789273     0.01660
H430        H  0.88207744  0.59694681  0.08806997     0.09310
H431        H  0.87807409  0.63803396  0.00487622     0.08390
N432        N  0.80902944  0.64860048  0.14103179    -0.35450
N433        N  0.78991939  0.66510152  0.13503935    -0.27630
C434        C  0.77426704  0.66692399  0.15887938    -0.02870
C435        C  0.78413236  0.65105919  0.18117565     0.05740
C436        C  0.80629695  0.63981399  0.16919803     0.03830
H437        H  0.75749131  0.67964765  0.16025286     0.08940
H438        H  0.81937433  0.62621372  0.18007459     0.07770
C439        C  0.97346895  0.53457677  0.98949350     0.03810
C440        C  0.95974359  0.51413347  0.97560914    -0.12340
C441        C  0.93256186  0.51427258  0.97566560     0.01310
C442        C  0.91914873  0.53481254  0.98958257    -0.10870
C443        C  0.93280539  0.55523600  0.00346238     0.03800
C444        C  0.95999353  0.55514216  0.00342680    -0.10290
H445        H  0.97015250  0.49821797  0.96484050     0.09390
H446        H  0.89809948  0.53489377  0.98962902     0.06920
H447        H  0.97059648  0.57095015  0.01418770     0.06770
C448        C  0.05267425  0.53378726  0.98935653     0.03810
C449        C  0.06594712  0.51287404  0.97584220    -0.12340
C450        C  0.09312897  0.51250030  0.97582050     0.01310
C451        C  0.10698950  0.53299837  0.98928678    -0.10870
C452        C  0.09378134  0.55388693  0.00279159     0.03800
C453        C  0.06659921  0.55430432  0.00283652    -0.10290
H454        H  0.05519006  0.49699908  0.96541338     0.09390
H455        H  0.12803644  0.53268691  0.98927225     0.06920
H456        H  0.05634608  0.57047137  0.01331692     0.06770
C457        C  0.00138028  0.53441274  0.98947183    -0.12600
C458        C  0.02476537  0.53416947  0.98942486    -0.14160
C459        C  0.91865308  0.57612483  0.01772540    -0.12600
C460        C  0.90530133  0.59275325  0.02917529    -0.14160
C461        C  0.78088523  0.64874994  0.26527076    -0.12670
C462        C  0.75396561  0.64834283  0.27020489     0.09480
C463        C  0.73709141  0.64722573  0.24569084    -0.12670
C464        C  0.74697606  0.64773513  0.21666330    -0.12670
C465        C  0.77388287  0.64848939  0.21173338     0.09480
C466        C  0.79078726  0.64839023  0.23624599    -0.12670
H467        H  0.79424802  0.64953692  0.28389136     0.13460
H468        H  0.71627512  0.64706414  0.24897179     0.13460
H469        H  0.73360460  0.64773712  0.19802881     0.13460
H470        H  0.81159013  0.64913384  0.23294328     0.13460
C471        C  0.60726150  0.57551938  0.46240506    -0.12600
C472        C  0.62089724  0.59210313  0.45125694    -0.14160
C473        C  0.50059019  0.53435461  0.49019106    -0.12600
C474        C  0.52397614  0.53440848  0.49003941    -0.14160
C475        C  0.90467036  0.47683779  0.95026341    -0.12600
C476        C  0.91817803  0.49345092  0.96154130    -0.14160
C477        C  0.61991324  0.47550099  0.52882727    -0.12600
C478        C  0.60663252  0.49227670  0.51753954    -0.14160
C479        C  0.77819872  0.41980250  0.71638654    -0.12670
C480        C  0.75130548  0.42008663  0.71126600     0.09480
C481        C  0.73431499  0.42156636  0.73564856    -0.12670
C482        C  0.74406034  0.42158554  0.76474551    -0.12670
C483        C  0.77094388  0.42097162  0.76986505     0.09480
C484        C  0.78795907  0.42065366  0.74545642    -0.12670
H485        H  0.79166060  0.41877173  0.69788131     0.13460
H486        H  0.71351450  0.42165803  0.73223797     0.13460
H487        H  0.73059664  0.42191107  0.78328453     0.13460
H488        H  0.80874741  0.42000745  0.74888990     0.13460
C489        C  0.12200105  0.59123915  0.02788439    -0.12600
C490        C  0.10837205  0.57470682  0.01664263    -0.14160
C491        C  0.41711579  0.57516405  0.46319292    -0.12600
C492        C  0.40338844  0.59164106  0.45205155    -0.14160
C493        C  0.24340872  0.64746669  0.26525264    -0.12670
C494        C  0.27019609  0.64686429  0.27103670     0.09480
C495        C  0.28762424  0.64566913  0.24703067    -0.12670
C496        C  0.27843489  0.64622387  0.21770015    -0.12670
C497        C  0.25166707  0.64711301  0.21193032     0.09480
C498        C  0.23419642  0.64716514  0.23591943    -0.12670
H499        H  0.22961070  0.64829306  0.28344104     0.13460
H500        H  0.30835583  0.64534501  0.25093448     0.13460
H501        H  0.29223671  0.64609900  0.19948808     0.13460
H502        H  0.21348384  0.64800475  0.23196900     0.13460
C503        C  0.10706212  0.49122643  0.96201932    -0.12600
C504        C  0.12024638  0.47429044  0.95090319    -0.14160
C505        C  0.40477250  0.47540198  0.53000624    -0.12600
C506        C  0.41810188  0.49214964  0.51869226    -0.14160
C507        C  0.29034303  0.41937168  0.73678003    -0.12670
C508        C  0.27350629  0.41794871  0.71225451     0.09480
C509        C  0.24658645  0.41737209  0.71714216    -0.12670
C510        C  0.23664366  0.41789598  0.74613347    -0.12670
C511        C  0.25350929  0.41815522  0.77068101     0.09480
C512        C  0.28042074  0.41904642  0.76579499    -0.12670
H513        H  0.31116139  0.41966790  0.73352730     0.13460
H514        H  0.23325073  0.41635257  0.69851015     0.13460
H515        H  0.21583974  0.41704113  0.74938902     0.13460
H516        H  0.29376720  0.41933175  0.78444944     0.13460
C517        C  0.50166251  0.03376391  0.99194892    -0.12600
C518        C  0.52504813  0.03385550  0.99189444    -0.14160
C519        C  0.77713632  0.80318796  0.47563064    -0.12670
C520        C  0.77182360  0.80661096  0.50608445     0.09480
C521        C  0.75682343  0.78752141  0.52090149    -0.12670
C522        C  0.74733763  0.76555329  0.50561842    -0.12670
C523        C  0.75265466  0.76213161  0.47516201     0.09480
C524        C  0.76764944  0.78122791  0.46034993    -0.12670
H525        H  0.78836033  0.81761705  0.46342808     0.13460
H526        H  0.75259770  0.78931321  0.54443804     0.13460
H527        H  0.73610842  0.75112346  0.51781358     0.13460
H528        H  0.77187506  0.77945326  0.43681292     0.13460
C529        C  0.74763359  0.80264399  0.00575996    -0.12670
C530        C  0.75356044  0.80650617  0.97551005     0.09480
C531        C  0.76945541  0.78800884  0.96101923    -0.12670
C532        C  0.77918959  0.76621586  0.97638780    -0.12670
C533        C  0.77324249  0.76234068  0.00662473     0.09480
C534        C  0.75736232  0.78084099  0.02112761    -0.12670
H535        H  0.73569668  0.81657761  0.01775099     0.13460
H536        H  0.77422652  0.79010270  0.93765714     0.13460
H537        H  0.79111780  0.75227442  0.96439498     0.13460
H538        H  0.75259249  0.77872301  0.04448984     0.13460
C539        C  0.62158122  0.97619442  0.95268149    -0.12600
C540        C  0.60814302  0.99281417  0.96400146    -0.14160
C541        C  0.77920727  0.91876394  0.76458737    -0.12670
C542        C  0.75233499  0.91971848  0.76976331     0.09480
C543        C  0.73534732  0.92169921  0.74541574    -0.12670
C544        C  0.74504662  0.92150264  0.71629702    -0.12670
C545        C  0.77189448  0.92021299  0.71114094     0.09480
C546        C  0.78893912  0.91943292  0.73550113    -0.12670
H547        H  0.79266978  0.91733187  0.78306093     0.13460
H548        H  0.71456162  0.92230719  0.74886807     0.13460
H549        H  0.73158238  0.92216182  0.69776547     0.13460
H550        H  0.80969712  0.91825642  0.73200270     0.13460
C551        C  0.00116789  0.03371820  0.49142196    -0.12600
C552        C  0.02455456  0.03352263  0.49156085    -0.14160
C553        C  0.91755807  0.99297553  0.51822715    -0.12600
C554        C  0.90390215  0.97639097  0.52933447    -0.14160
C555        C  0.27920682  0.80175297  0.00578942    -0.12670
C556        C  0.27303498  0.80581624  0.97563246     0.09480
C557        C  0.25734274  0.78718061  0.96103357    -0.12670
C558        C  0.24802898  0.76506929  0.97620948    -0.12670
C559        C  0.25418637  0.76100964  0.00636923     0.09480
C560        C  0.26989069  0.77963665  0.02096901    -0.12670
H561        H  0.29100538  0.81577906  0.01786084     0.13460
H562        H  0.25240815  0.78942637  0.93773263     0.13460
H563        H  0.23623407  0.75104735  0.96412841     0.13460
H564        H  0.27482416  0.77738111  0.04426957     0.13460
C565        C  0.40479483  0.97593207  0.95337483    -0.12600
C566        C  0.41838145  0.99249461  0.96463396    -0.14160
C567        C  0.27597080  0.79325506  0.51572882    -0.12670
C568        C  0.25306565  0.80604445  0.50674198     0.09480
C569        C  0.23915365  0.79572009  0.48245651    -0.12670
C570        C  0.24790000  0.77323651  0.46758476    -0.12670
C571        C  0.27082017  0.76046730  0.47655068     0.09480
C572        C  0.28471564  0.77077053  0.50085824    -0.12670
H573        H  0.28738838  0.80061779  0.53415390     0.13460
H574        H  0.22135323  0.80480355  0.47494140     0.13460
H575        H  0.23648670  0.76586860  0.44915738     0.13460
H576        H  0.30252287  0.76169178  0.50836150     0.13460
C577        C  0.12106737  0.97543606  0.53082359    -0.12600
C578        C  0.10748125  0.99198106  0.51956998    -0.14160
C579        C  0.28172223  0.92072952  0.71690420    -0.12670
C580        C  0.25488649  0.92045192  0.71141188     0.09480
C581        C  0.23762284  0.92068298  0.73560299    -0.12670
C582        C  0.24706532  0.92004311  0.76482588    -0.12670
C583        C  0.27389943  0.92002678  0.77031767     0.09480
C584        C  0.29116184  0.92095118  0.74614527    -0.12670
H585        H  0.29538077  0.92063489  0.69855126     0.13460
H586        H  0.21686243  0.92031080  0.73190009     0.13460
H587        H  0.23340662  0.91942036  0.78316681     0.13460
H588        H  0.31192358  0.92079827  0.74985653     0.13460
C589        C  0.74433290  0.30061333  0.47687014    -0.12670
C590        C  0.75302658  0.30661507  0.50576897     0.09480
C591        C  0.77174925  0.29017017  0.51895677    -0.12670
C592        C  0.78149036  0.26833343  0.50368759    -0.12670
C593        C  0.77277786  0.26231492  0.47480349     0.09480
C594        C  0.75407489  0.27877290  0.46159966    -0.12670
H595        H  0.73009187  0.31281399  0.46582336     0.13460
H596        H  0.77887809  0.29391924  0.54122145     0.13460
H597        H  0.79572230  0.25612689  0.51474179     0.13460
H598        H  0.74695182  0.27501470  0.43933312     0.13460
C599        C  0.91884522  0.07633686  0.46330827    -0.12600
C600        C  0.90564885  0.09317388  0.45199259    -0.14160
C601        C  0.78290821  0.29995776  0.00196414    -0.12670
C602        C  0.77155147  0.30798622  0.97497974     0.09480
C603        C  0.75073389  0.29316522  0.96352498    -0.12670
C604        C  0.74152994  0.27097099  0.97863754    -0.12670
C605        C  0.75286904  0.26297065  0.00564728     0.09480
C606        C  0.77371155  0.27777185  0.01706699    -0.12670
H607        H  0.79893076  0.31074095  0.01160848     0.13460
H608        H  0.74140374  0.29855894  0.94282743     0.13460
H609        H  0.72548555  0.26019332  0.96902928     0.13460
H610        H  0.78307511  0.27237914  0.03774253     0.13460
C611        C  0.60788332  0.07592576  0.01932906    -0.12600
C612        C  0.62132253  0.09266405  0.03048264    -0.14160
C613        C  0.73809919  0.14681509  0.23528969    -0.12670
C614        C  0.75490511  0.14940101  0.21084265     0.09480
C615        C  0.78176501  0.15120428  0.21588206    -0.12670
C616        C  0.79164125  0.15076450  0.24491718    -0.12670
C617        C  0.77473502  0.14934339  0.26936470     0.09480
C618        C  0.74791880  0.14721763  0.26434961    -0.12670
H619        H  0.71732443  0.14554985  0.23197499     0.13460
H620        H  0.79510740  0.15310224  0.19734852     0.13460
H621        H  0.81237027  0.15258457  0.24831468     0.13460
H622        H  0.73456288  0.14604998  0.28295190     0.13460
C623        C  0.24867518  0.27242138  0.01504847    -0.12670
C624        C  0.27213765  0.26051783  0.00641433     0.09480
C625        C  0.28596580  0.27136449  0.98237033    -0.12670
C626        C  0.27661177  0.29354197  0.96740543    -0.12670
C627        C  0.25315310  0.30545152  0.97603995     0.09480
C628        C  0.23931873  0.29460238  0.00007993    -0.12670
H629        H  0.23729841  0.26457941  0.03325924     0.13460
H630        H  0.30418470  0.26296034  0.97517181     0.13460
H631        H  0.28799824  0.30138058  0.94920197     0.13460
H632        H  0.22110325  0.30301624  0.00727712     0.13460
C633        C  0.41902532  0.07561925  0.01994837    -0.12600
C634        C  0.40575958  0.09240978  0.03120767    -0.14160
C635        C  0.27804859  0.30196635  0.47622913    -0.12670
C636        C  0.27341370  0.30498190  0.50688072     0.09480
C637        C  0.25881905  0.28565885  0.52184234    -0.12670
C638        C  0.24904103  0.26386738  0.50650400    -0.12670
C639        C  0.25367025  0.26085552  0.47585398     0.09480
C640        C  0.26827504  0.28016820  0.46089109    -0.12670
H641        H  0.28894883  0.31659099  0.46393635     0.13460
H642        H  0.25513438  0.28713127  0.54552689     0.13460
H643        H  0.23813881  0.24924252  0.51879539     0.13460
H644        H  0.27195672  0.27868425  0.43720562     0.13460
C645        C  0.10762073  0.07486482  0.46381057    -0.12600
C646        C  0.12113389  0.09147924  0.45253989    -0.14160
C647        C  0.27985126  0.14820334  0.26545300    -0.12670
C648        C  0.25294744  0.14789041  0.27047257     0.09480
C649        C  0.23600242  0.14679105  0.24602541    -0.12670
C650        C  0.24581291  0.14717753  0.21696447    -0.12670
C651        C  0.27271249  0.14782133  0.21194246     0.09480
C652        C  0.28967516  0.14775062  0.23640654    -0.12670
H653        H  0.29326665  0.14897073  0.28402491     0.13460
H654        H  0.21519485  0.14670182  0.24938190     0.13460
H655        H  0.23238709  0.14713661  0.19838322     0.13460
H656        H  0.31047397  0.14840549  0.23305502     0.13460
loop_ 
_geom_bond_atom_site_label_1 
_geom_bond_atom_site_label_2 
_geom_bond_distance 
_geom_bond_site_symmetry_2 
_ccdc_geom_bond_type 
N1            N2   1.320       .  A
N1            C5   1.342       .  A
N1           Cu9   2.063       .  S
N2            C3   1.346       .  A
N2           Cu8   2.075       .  S
C3            C4   1.389       .  A
C3            H6   1.082       .  S
C4            C5   1.385       .  A
C4          C639   1.482       .  S
C5            H7   1.081       .  S
Cu8          N11   2.076       .  S
Cu9          N19   2.063       .  S
Cu10         N12   2.078       .  S
Cu10         N18   2.077       .  S
N11          N12   1.325       .  A
N11          C15   1.345       .  A
N12          C13   1.345       .  A
C13          C14   1.379       .  A
C13          H16   1.082       .  S
C14          C15   1.378       .  A
C14         C646   1.435       .  S
C15          H17   1.082       .  S
N18          N19   1.321       .  A
N18          C22   1.347       .  A
N19          C20   1.342       .  A
C20          C21   1.381       .  A
C20          H23   1.082       .  S
C21          C22   1.386       .  A
C21         C648   1.475       .  S
C22          H24   1.082       .  S
N25          N26   1.320       .  A
N25          C29   1.342       .  A
N25         Cu33   2.066       .  S
N26          C27   1.345       .  A
N26         Cu32   2.075       .  S
C27          C28   1.390       .  A
C27          H30   1.081   1_554  S
C28          C29   1.387       .  A
C28         C624   1.486       .  S
C29          H31   1.081       .  S
Cu32         N35   2.075       .  S
Cu33         N43   2.065       .  S
Cu34         N36   2.077       .  S
Cu34         N42   2.076       .  S
N35          N36   1.324       .  A
N35          C39   1.345       .  A
N36          C37   1.345       .  A
C37          C38   1.379       .  A
C37          H40   1.082       .  S
C38          C39   1.379       .  A
C38         C634   1.435       .  S
C39          H41   1.082       .  S
N42          N43   1.321       .  A
N42          C46   1.347       .  A
N43          C44   1.343       .  A
C44          C45   1.382       .  A
C44          H47   1.082       .  S
C45          C46   1.386       .  A
C45         C651   1.475       .  S
C46          H48   1.082       .  S
N49          N50   1.320       .  A
N49          C53   1.342       .  A
N49         Cu57   2.065       .  S
N50          C51   1.346       .  A
N50         Cu56   2.076       .  S
C51          C52   1.391       .  A
C51          H54   1.081   1_554  S
C52          C53   1.387       .  A
C52         C605   1.488       .  S
C53          H55   1.080       .  S
Cu56         N59   2.077       .  S
Cu57         N67   2.065       .  S
Cu58         N60   2.078       .  S
Cu58         N66   2.077       .  S
N59          N60   1.325       .  A
N59          C63   1.345       .  A
N60          C61   1.345       .  A
C61          C62   1.379       .  A
C61          H64   1.082       .  S
C62          C63   1.379       .  A
C62         C612   1.436       .  S
C63          H65   1.082       .  S
N66          N67   1.321       .  A
N66          C70   1.347       .  A
N67          C68   1.343       .  A
C68          C69   1.382       .  A
C68          H71   1.082       .  S
C69          C70   1.387       .  A
C69         C614   1.476       .  S
C70          H72   1.082       .  S
N73          N74   1.320       .  A
N73          C77   1.342       .  A
N73         Cu81   2.066       .  S
N74          C75   1.346       .  A
N74         Cu80   2.076       .  S
C75          C76   1.391       .  A
C75          H78   1.081       .  S
C76          C77   1.387       .  A
C76         C593   1.487       .  S
C77          H79   1.081       .  S
Cu80         N83   2.077       .  S
Cu81         N91   2.066       .  S
Cu82         N84   2.078       .  S
Cu82         N90   2.077       .  S
N83          N84   1.325       .  A
N83          C87   1.345       .  A
N84          C85   1.345       .  A
C85          C86   1.379       .  A
C85          H88   1.082       .  S
C86          C87   1.379       .  A
C86         C600   1.436       .  S
C87          H89   1.082       .  S
N90          N91   1.321       .  A
N90          C94   1.347       .  A
N91          C92   1.343       .  A
C92          C93   1.381       .  A
C92          H95   1.082       .  S
C93          C94   1.386       .  A
C93         C617   1.474       .  S
C94          H96   1.082       .  S
N97          N98   1.320       .  A
N97         C101   1.343       .  A
N97        Cu105   2.070       .  S
N98          C99   1.345       .  A
N98        Cu104   2.075       .  S
C99         C100   1.390       .  A
C99         H102   1.081       .  S
C100        C101   1.388       .  A
C100        C568   1.487       .  S
C101        H103   1.081       .  S
Cu104       N107   2.075       .  S
Cu105       N115   2.070       .  S
Cu106       N108   2.077       .  S
Cu106       N114   2.077       .  S
N107        N108   1.324       .  A
N107        C111   1.345       .  A
N108        C109   1.345       .  A
C109        C110   1.379       .  A
C109        H112   1.082       .  S
C110        C111   1.379       .  A
C110        C577   1.436       .  S
C111        H113   1.082       .  S
N114        N115   1.322       .  A
N114        C118   1.347       .  A
N115        C116   1.344       .  A
C116        C117   1.383       .  A
C116        H119   1.082       .  S
C117        C118   1.386       .  A
C117        C580   1.476       .  S
C118        H120   1.082       .  S
N121        N122   1.320       .  A
N121        C125   1.343       .  A
N121       Cu129   2.069       .  S
N122        C123   1.346       .  A
N122       Cu128   2.076       .  S
C123        C124   1.389       .  A
C123        H126   1.081       .  S
C124        C125   1.386       .  A
C124        C556   1.485       .  S
C125        H127   1.081       .  S
Cu128       N131   2.076       .  S
Cu129       N139   2.068       .  S
Cu130       N132   2.078       .  S
Cu130       N138   2.077       .  S
N131        N132   1.325       .  A
N131        C135   1.345       .  A
N132        C133   1.345       .  A
C133        C134   1.379       .  A
C133        H136   1.082       .  S
C134        C135   1.379       .  A
C134        C565   1.436       .  S
C135        H137   1.082       .  S
N138        N139   1.321       .  A
N138        C142   1.347       .  A
N139        C140   1.343       .  A
C140        C141   1.382       .  A
C140        H143   1.082       .  S
C141        C142   1.386       .  A
C141        C583   1.476       .  S
C142        H144   1.082       .  S
C145        C146   1.402       .  A
C145        C150   1.402       .  A
C145        C551   1.438   1_655  S
C146        C147   1.401       .  A
C146        H151   1.084       .  S
C147        C148   1.399       .  A
C147        C599   1.439       .  S
C148        C149   1.399       .  A
C148        H152   1.085       .  S
C149        C150   1.401       .  A
C149        C553   1.438   1_545  S
C150        H153   1.084   1_545  S
C154        C155   1.402       .  A
C154        C159   1.403       .  A
C154        C552   1.438       .  S
C155        C156   1.400       .  A
C155        H160   1.084       .  S
C156        C157   1.399       .  A
C156        C645   1.438       .  S
C157        C158   1.399       .  A
C157        H161   1.085       .  S
C158        C159   1.401       .  A
C158        C578   1.439   1_545  S
C159        H162   1.084   1_545  S
N163        N164   1.320       .  A
N163        C167   1.342       .  A
N163       Cu171   2.065       .  S
N164        C165   1.346       .  A
N164       Cu170   2.076       .  S
C165        C166   1.390       .  A
C165        H168   1.081       .  S
C166        C167   1.386       .  A
C166        C530   1.485       .  S
C167        H169   1.081       .  S
Cu170       N173   2.076       .  S
Cu171       N181   2.065       .  S
Cu172       N174   2.078       .  S
Cu172       N180   2.077       .  S
N173        N174   1.325       .  A
N173        C177   1.345       .  A
N174        C175   1.345       .  A
C175        C176   1.379       .  A
C175        H178   1.082       .  S
C176        C177   1.378       .  A
C176        C539   1.435       .  S
C177        H179   1.082       .  S
N180        N181   1.321       .  A
N180        C184   1.347       .  A
N181        C182   1.343       .  A
C182        C183   1.382       .  A
C182        H185   1.082       .  S
C183        C184   1.386       .  A
C183        C542   1.476       .  S
C184        H186   1.082       .  S
N187        N188   1.320       .  A
N187        C191   1.343       .  A
N187       Cu195   2.066       .  S
N188        C189   1.346       .  A
N188       Cu194   2.075       .  S
C189        C190   1.389       .  A
C189        H192   1.082       .  S
C190        C191   1.385       .  A
C190        C520   1.483       .  S
C191        H193   1.081       .  S
Cu194       N197   2.076       .  S
Cu195       N205   2.066       .  S
Cu196       N198   2.078       .  S
Cu196       N204   2.077       .  S
N197        N198   1.325       .  A
N197        C201   1.345       .  A
N198        C199   1.345       .  A
C199        C200   1.379       .  A
C199        H202   1.082       .  S
C200        C201   1.379       .  A
C200        C554   1.436       .  S
C201        H203   1.082       .  S
N204        N205   1.321       .  A
N204        C208   1.347       .  A
N205        C206   1.343       .  A
C206        C207   1.381       .  A
C206        H209   1.082       .  S
C207        C208   1.386       .  A
C207        C545   1.474       .  S
C208        H210   1.082       .  S
C211        C212   1.402   1_556  A
C211        C216   1.402       .  A
C211        C518   1.438       .  S
C212        C213   1.401       .  A
C212        H217   1.084       .  S
C213        C214   1.399   1_554  A
C213        C611   1.439       .  S
C214        C215   1.399       .  A
C214        H218   1.085       .  S
C215        C216   1.401       .  A
C215        C540   1.438   1_545  S
C216        H219   1.084   1_545  S
C220        C221   1.402   1_556  A
C220        C225   1.402       .  A
C220        C517   1.438       .  S
C221        C222   1.400       .  A
C221        H226   1.084       .  S
C222        C223   1.399   1_554  A
C222        C633   1.438       .  S
C223        C224   1.400       .  A
C223        H227   1.085       .  S
C224        C225   1.401       .  A
C224        C566   1.439   1_545  S
C225        H228   1.084   1_545  S
N229        N230   1.320       .  A
N229        C233   1.342       .  A
N229       Cu237   2.063       .  S
N230        C231   1.346       .  A
N230       Cu236   2.076       .  S
C231        C232   1.389       .  A
C231        H234   1.082       .  S
C232        C233   1.385       .  A
C232        C636   1.483       .  S
C233        H235   1.081       .  S
Cu236       N239   2.076       .  S
Cu237       N247   2.063       .  S
Cu238       N240   2.079       .  S
Cu238       N246   2.078       .  S
N239        N240   1.325       .  A
N239        C243   1.345       .  A
N240        C241   1.345       .  A
C241        C242   1.379       .  A
C241        H244   1.082       .  S
C242        C243   1.378       .  A
C242        C505   1.436       .  S
C243        H245   1.082       .  S
N246        N247   1.321       .  A
N246        C250   1.347       .  A
N247        C248   1.342       .  A
C248        C249   1.381       .  A
C248        H251   1.082       .  S
C249        C250   1.386       .  A
C249        C508   1.475       .  S
C250        H252   1.082       .  S
N253        N254   1.320       .  A
N253        C257   1.342       .  A
N253       Cu261   2.065       .  S
N254        C255   1.346       .  A
N254       Cu260   2.076       .  S
C255        C256   1.390       .  A
C255        H258   1.081       .  S
C256        C257   1.386       .  A
C256        C627   1.486       .  S
C257        H259   1.081       .  S
Cu260       N263   2.076       .  S
Cu261       N271   2.065       .  S
Cu262       N264   2.077       .  S
Cu262       N270   2.077       .  S
N263        N264   1.325       .  A
N263        C267   1.345       .  A
N264        C265   1.345       .  A
C265        C266   1.379       .  A
C265        H268   1.082       .  S
C266        C267   1.379       .  A
C266        C504   1.436       .  S
C267        H269   1.082       .  S
N270        N271   1.321       .  A
N270        C274   1.347       .  A
N271        C272   1.343       .  A
C272        C273   1.382       .  A
C272        H275   1.082       .  S
C273        C274   1.386       .  A
C273        C511   1.475       .  S
C274        H276   1.082       .  S
N277        N278   1.320       .  A
N277        C281   1.343       .  A
N277       Cu285   2.070       .  S
N278        C279   1.345       .  A
N278       Cu284   2.075       .  S
C279        C280   1.390       .  A
C279        H282   1.081       .  S
C280        C281   1.388       .  A
C280        C571   1.487       .  S
C281        H283   1.081       .  S
Cu284       N287   2.075       .  S
Cu285       N295   2.070       .  S
Cu286       N288   2.076       .  S
Cu286       N294   2.076       .  S
N287        N288   1.324       .  A
N287        C291   1.345       .  A
N288        C289   1.345       .  A
C289        C290   1.379       .  A
C289        H292   1.082       .  S
C290        C291   1.379       .  A
C290        C492   1.435       .  S
C291        H293   1.082       .  S
N294        N295   1.321       .  A
N294        C298   1.347       .  A
N295        C296   1.344       .  A
C296        C297   1.383       .  A
C296        H299   1.082       .  S
C297        C298   1.386       .  A
C297        C494   1.477       .  S
C298        H300   1.082       .  S
N301        N302   1.320       .  A
N301        C305   1.343       .  A
N301       Cu309   2.069       .  S
N302        C303   1.346       .  A
N302       Cu308   2.075       .  S
C303        C304   1.389       .  A
C303        H306   1.081   1_554  S
C304        C305   1.386       .  A
C304        C559   1.485       .  S
C305        H307   1.081       .  S
Cu308       N311   2.076       .  S
Cu309       N319   2.069       .  S
Cu310       N312   2.077       .  S
Cu310       N318   2.077       .  S
N311        N312   1.324       .  A
N311        C315   1.345       .  A
N312        C313   1.345       .  A
C313        C314   1.379       .  A
C313        H316   1.082       .  S
C314        C315   1.379       .  A
C314        C489   1.436       .  S
C315        H317   1.082       .  S
N318        N319   1.322       .  A
N318        C322   1.347       .  A
N319        C320   1.343       .  A
C320        C321   1.382       .  A
C320        H323   1.082       .  S
C321        C322   1.385       .  A
C321        C497   1.475       .  S
C322        H324   1.082       .  S
N325        N326   1.320       .  A
N325        C329   1.342       .  A
N325       Cu333   2.066       .  S
N326        C327   1.346       .  A
N326       Cu332   2.076       .  S
C327        C328   1.391       .  A
C327        H330   1.081       .  S
C328        C329   1.387       .  A
C328        C590   1.487       .  S
C329        H331   1.081       .  S
Cu332       N335   2.077       .  S
Cu333       N343   2.066       .  S
Cu334       N336   2.077       .  S
Cu334       N342   2.076       .  S
N335        N336   1.325       .  A
N335        C339   1.345       .  A
N336        C337   1.345       .  A
C337        C338   1.379       .  A
C337        H340   1.082       .  S
C338        C339   1.379       .  A
C338        C477   1.435       .  S
C339        H341   1.082       .  S
N342        N343   1.321       .  A
N342        C346   1.347       .  A
N343        C344   1.343       .  A
C344        C345   1.382       .  A
C344        H347   1.082       .  S
C345        C346   1.386       .  A
C345        C480   1.476       .  S
C346        H348   1.082       .  S
N349        N350   1.320       .  A
N349        C353   1.342       .  A
N349       Cu357   2.066       .  S
N350        C351   1.345       .  A
N350       Cu356   2.075       .  S
C351        C352   1.391       .  A
C351        H354   1.081       .  S
C352        C353   1.387       .  A
C352        C602   1.488       .  S
C353        H355   1.080       .  S
Cu356       N359   2.075       .  S
Cu357       N367   2.066       .  S
Cu358       N360   2.077       .  S
Cu358       N366   2.077       .  S
N359        N360   1.325       .  A
N359        C363   1.345       .  A
N360        C361   1.345       .  A
C361        C362   1.379       .  A
C361        H364   1.082       .  S
C362        C363   1.379       .  A
C362        C475   1.436       .  S
C363        H365   1.082       .  S
N366        N367   1.321       .  A
N366        C370   1.347       .  A
N367        C368   1.343       .  A
C368        C369   1.382       .  A
C368        H371   1.082       .  S
C369        C370   1.386       .  A
C369        C483   1.475       .  S
C370        H372   1.082       .  S
C373        C374   1.402       .  A
C373        C378   1.402       .  A
C373        C473   1.438       .  S
C374        C375   1.401       .  A
C374        H379   1.084       .  S
C375        C376   1.399       .  A
C375        C491   1.438       .  S
C376        C377   1.399       .  A
C376        H380   1.085       .  S
C377        C378   1.401       .  A
C377        C506   1.438       .  S
C378        H381   1.084       .  S
C382        C383   1.402       .  A
C382        C387   1.402       .  A
C382        C474   1.438       .  S
C383        C384   1.400       .  A
C383        H388   1.084       .  S
C384        C385   1.399       .  A
C384        C478   1.438       .  S
C385        C386   1.399       .  A
C385        H389   1.085       .  S
C386        C387   1.401       .  A
C386        C471   1.439       .  S
C387        H390   1.084       .  S
N391        N392   1.320       .  A
N391        C395   1.342       .  A
N391       Cu399   2.065       .  S
N392        C393   1.346       .  A
N392       Cu398   2.076       .  S
C393        C394   1.389       .  A
C393        H396   1.082       .  S
C394        C395   1.385       .  A
C394        C523   1.483       .  S
C395        H397   1.081       .  S
Cu398       N401   2.076       .  S
Cu399       N409   2.065       .  S
Cu400       N402   2.078       .  S
Cu400       N408   2.078       .  S
N401        N402   1.325       .  A
N401        C405   1.345       .  A
N402        C403   1.345       .  A
C403        C404   1.379       .  A
C403        H406   1.082       .  S
C404        C405   1.379       .  A
C404        C472   1.436       .  S
C405        H407   1.082       .  S
N408        N409   1.321       .  A
N408        C412   1.347       .  A
N409        C410   1.343       .  A
C410        C411   1.382       .  A
C410        H413   1.082       .  S
C411        C412   1.386       .  A
C411        C462   1.475       .  S
C412        H414   1.082       .  S
N415        N416   1.320       .  A
N415        C419   1.343       .  A
N415       Cu423   2.065       .  S
N416        C417   1.346       .  A
N416       Cu422   2.075       .  S
C417        C418   1.389       .  A
C417        H420   1.081   1_554  S
C418        C419   1.386       .  A
C418        C533   1.484       .  S
C419        H421   1.081       .  S
Cu422       N425   2.076       .  S
Cu423       N433   2.065       .  S
Cu424       N426   2.079       .  S
Cu424       N432   2.078       .  S
N425        N426   1.325       .  A
N425        C429   1.345       .  A
N426        C427   1.346       .  A
C427        C428   1.379       .  A
C427        H430   1.082       .  S
C428        C429   1.379       .  A
C428        C460   1.436       .  S
C429        H431   1.082       .  S
N432        N433   1.321       .  A
N432        C436   1.347       .  A
N433        C434   1.343       .  A
C434        C435   1.382       .  A
C434        H437   1.082       .  S
C435        C436   1.386       .  A
C435        C465   1.475       .  S
C436        H438   1.082       .  S
C439        C440   1.402       .  A
C439        C444   1.402   1_556  A
C439        C457   1.438   1_655  S
C440        C441   1.401       .  A
C440        H445   1.084       .  S
C441        C442   1.399       .  A
C441        C476   1.438       .  S
C442        C443   1.400   1_556  A
C442        H446   1.085       .  S
C443        C444   1.401       .  A
C443        C459   1.439       .  S
C444        H447   1.084       .  S
C448        C449   1.402       .  A
C448        C453   1.402   1_556  A
C448        C458   1.438       .  S
C449        C450   1.401       .  A
C449        H454   1.084       .  S
C450        C451   1.400       .  A
C450        C503   1.438       .  S
C451        C452   1.399   1_556  A
C451        H455   1.085       .  S
C452        C453   1.401       .  A
C452        C490   1.438       .  S
C453        H456   1.084       .  S
C457        C458   1.205       .  T
C459        C460   1.205       .  T
C461        C462   1.405       .  A
C461        C466   1.399       .  A
C461        H467   1.083       .  S
C462        C463   1.403       .  A
C463        C464   1.398       .  A
C463        H468   1.083       .  S
C464        C465   1.404       .  A
C464        H469   1.083       .  S
C465        C466   1.403       .  A
C466        H470   1.083       .  S
C471        C472   1.205       .  T
C473        C474   1.205       .  T
C475        C476   1.205       .  T
C477        C478   1.205       .  T
C479        C480   1.405       .  A
C479        C484   1.398       .  A
C479        H485   1.083       .  S
C480        C481   1.403       .  A
C481        C482   1.398       .  A
C481        H486   1.083       .  S
C482        C483   1.404       .  A
C482        H487   1.083       .  S
C483        C484   1.403       .  A
C484        H488   1.083       .  S
C489        C490   1.205       .  T
C491        C492   1.205       .  T
C493        C494   1.405       .  A
C493        C498   1.399       .  A
C493        H499   1.083       .  S
C494        C495   1.404       .  A
C495        C496   1.399       .  A
C495        H500   1.083       .  S
C496        C497   1.404       .  A
C496        H501   1.083       .  S
C497        C498   1.403       .  A
C498        H502   1.083       .  S
C503        C504   1.205       .  T
C505        C506   1.205       .  T
C507        C508   1.403       .  A
C507        C512   1.399       .  A
C507        H513   1.083       .  S
C508        C509   1.405       .  A
C509        C510   1.398       .  A
C509        H514   1.083       .  S
C510        C511   1.403       .  A
C510        H515   1.083       .  S
C511        C512   1.405       .  A
C512        H516   1.083       .  S
C517        C518   1.205       .  T
C519        C520   1.404       .  A
C519        C524   1.398       .  A
C519        H525   1.082       .  S
C520        C521   1.406       .  A
C521        C522   1.398       .  A
C521        H526   1.082       .  S
C522        C523   1.404       .  A
C522        H527   1.082       .  S
C523        C524   1.406       .  A
C524        H528   1.082       .  S
C529        C530   1.405   1_554  A
C529        C534   1.398       .  A
C529        H535   1.082       .  S
C530        C531   1.407       .  A
C531        C532   1.398       .  A
C531        H536   1.082       .  S
C532        C533   1.404   1_556  A
C532        H537   1.082       .  S
C533        C534   1.407       .  A
C534        H538   1.082       .  S
C539        C540   1.205       .  T
C541        C542   1.405       .  A
C541        C546   1.398       .  A
C541        H547   1.083       .  S
C542        C543   1.403       .  A
C543        C544   1.399       .  A
C543        H548   1.083       .  S
C544        C545   1.404       .  A
C544        H549   1.083       .  S
C545        C546   1.402       .  A
C546        H550   1.083       .  S
C551        C552   1.205       .  T
C553        C554   1.205       .  T
C555        C556   1.405   1_554  A
C555        C560   1.398       .  A
C555        H561   1.082       .  S
C556        C557   1.406       .  A
C557        C558   1.398       .  A
C557        H562   1.082       .  S
C558        C559   1.405   1_556  A
C558        H563   1.082       .  S
C559        C560   1.407       .  A
C560        H564   1.082       .  S
C565        C566   1.205       .  T
C567        C568   1.407       .  A
C567        C572   1.398       .  A
C567        H573   1.081       .  S
C568        C569   1.405       .  A
C569        C570   1.398       .  A
C569        H574   1.081       .  S
C570        C571   1.407       .  A
C570        H575   1.081       .  S
C571        C572   1.405       .  A
C572        H576   1.081       .  S
C577        C578   1.205       .  T
C579        C580   1.405       .  A
C579        C584   1.399       .  A
C579        H585   1.083       .  S
C580        C581   1.403       .  A
C581        C582   1.399       .  A
C581        H586   1.083       .  S
C582        C583   1.404       .  A
C582        H587   1.083       .  S
C583        C584   1.403       .  A
C584        H588   1.083       .  S
C589        C590   1.405       .  A
C589        C594   1.398       .  A
C589        H595   1.081       .  S
C590        C591   1.407       .  A
C591        C592   1.398       .  A
C591        H596   1.081       .  S
C592        C593   1.405       .  A
C592        H597   1.081       .  S
C593        C594   1.407       .  A
C594        H598   1.081       .  S
C599        C600   1.205       .  T
C601        C602   1.405   1_554  A
C601        C606   1.397       .  A
C601        H607   1.081       .  S
C602        C603   1.407       .  A
C603        C604   1.398       .  A
C603        H608   1.081       .  S
C604        C605   1.405   1_556  A
C604        H609   1.081       .  S
C605        C606   1.407       .  A
C606        H610   1.081       .  S
C611        C612   1.205       .  T
C613        C614   1.403       .  A
C613        C618   1.398       .  A
C613        H619   1.083       .  S
C614        C615   1.405       .  A
C615        C616   1.398       .  A
C615        H620   1.083       .  S
C616        C617   1.402       .  A
C616        H621   1.083       .  S
C617        C618   1.404       .  A
C618        H622   1.083       .  S
C623        C624   1.407       .  A
C623        C628   1.398       .  A
C623        H629   1.081       .  S
C624        C625   1.405   1_554  A
C625        C626   1.398       .  A
C625        H630   1.081       .  S
C626        C627   1.407       .  A
C626        H631   1.081       .  S
C627        C628   1.405   1_556  A
C628        H632   1.081       .  S
C633        C634   1.205       .  T
C635        C636   1.404       .  A
C635        C640   1.398       .  A
C635        H641   1.082       .  S
C636        C637   1.406       .  A
C637        C638   1.397       .  A
C637        H642   1.082       .  S
C638        C639   1.404       .  A
C638        H643   1.082       .  S
C639        C640   1.406       .  A
C640        H644   1.082       .  S
C645        C646   1.205       .  T
C647        C648   1.404       .  A
C647        C652   1.398       .  A
C647        H653   1.083       .  S
C648        C649   1.403       .  A
C649        C650   1.398       .  A
C649        H654   1.083       .  S
C650        C651   1.405       .  A
C650        H655   1.083       .  S
C651        C652   1.403       .  A
C652        H656   1.083       .  S
