geometry optimzed in LAMMPS
_audit_creation_date              2020-11-30 
_audit_creation_method            'lammps2cif' 
_symmetry_space_group_name_H-M    'P1' 
_symmetry_Int_Tables_number       1 
_symmetry_cell_setting            triclinic 
loop_ 
_symmetry_equiv_pos_as_xyz 
  x,y,z 
_cell_length_a                    46.991851558474536 
_cell_length_b                    30.57216321570358 
_cell_length_c                    36.672466567830305 
_cell_angle_alpha                 89.08183052240182 
_cell_angle_beta                  139.58963599960322 
_cell_angle_gamma                 90.40118187290095 
loop_ 
_atom_site_label 
_atom_site_type_symbol 
_atom_site_fract_x 
_atom_site_fract_y 
_atom_site_fract_z 
_atom_site_charge 
C1          C  0.16793781  0.70228003  0.37794902    -0.00890
O2          O  0.27254603  0.34737455  0.20757013    -0.56220
C3          C  0.20717140  0.22587906  0.15655071     0.76410
O4          O  0.00650873  0.24235826  0.23137292    -0.57380
C5          C  0.31177513  0.36049307  0.24867178     0.76380
C6          C  0.98861829  0.22972239  0.32835624     0.78780
Cd7        Cd  0.28985833  0.26909562  0.23072062     1.37470
O8          O  0.20914992  0.26703895  0.16264404    -0.56210
O9          O  0.29221963  0.25895983  0.29948497    -0.55020
C10         C  0.31285538  0.25053797  0.17944209     0.78740
O11         O  0.00651362  0.22209881  0.31523182    -0.57400
O12         O  0.24265901  0.20669199  0.18273266    -0.55850
O13         O  0.00659972  0.33118328  0.28384630    -0.55840
O14         O  0.27533684  0.26469993  0.15161465    -0.55010
O15         O  0.06250104  0.55501630  0.29752921    -0.56220
C16         C  0.12671151  0.67568706  0.34457122     0.76410
O17         O  0.32780297  0.67992556  0.18537137    -0.57380
C18         C  0.02407577  0.54087617  0.25456787     0.76380
C19         C  0.34962863  0.65352810  0.31562234     0.78780
Cd20       Cd  0.04364514  0.63289252  0.26973846     1.37460
O21         O  0.12457220  0.63444266  0.33894129    -0.56210
O22         O  0.05567152  0.64443325  0.34625853    -0.55020
C23         C  0.34581390  0.67191213  0.17249705     0.78740
O24         O  0.32259282  0.65581557  0.26298467    -0.57400
O25         O  0.09121048  0.69520834  0.31780910    -0.55850
O26         O  0.32947717  0.56923578  0.21698896    -0.55840
O27         O  0.04204920  0.64252407  0.20154797    -0.55010
O28         O  0.27377731  0.55256533  0.46831225    -0.56220
C29         C  0.20933929  0.67501994  0.41290935     0.76410
O30         O  0.00981311  0.67824949  0.07212449    -0.57380
C31         C  0.97961968  0.53966176  0.00141537     0.76380
C32         C  0.97793468  0.65203762  0.43261951     0.78780
Cd33       Cd  0.29266253  0.63136393  0.48909866     1.37460
O34         O  0.21185605  0.63393613  0.42122308    -0.56210
O35         O  0.27356160  0.64235210  0.40761253    -0.55020
C36         C  0.99292114  0.67073718  0.08675530     0.78740
O37         O  0.00786422  0.65623065  0.48557200    -0.57400
O38         O  0.24464619  0.69391754  0.43829626    -0.55850
O39         O  0.00902531  0.56844707  0.03246117    -0.55840
O40         O  0.29751836  0.64101867  0.06027259    -0.55010
O41         O  0.12179789  0.26688007  0.07972282    -0.56220
C42         C  0.02072919  0.36067013  0.99951026     0.76410
O43         O  0.32444227  0.22238423  0.42844533    -0.57380
C44         C  0.12460722  0.22584629  0.08835589     0.76380
C45         C  0.35325515  0.24905140  0.06502222     0.78780
Cd46       Cd  0.04101621  0.26903009  0.01153281     1.37460
O47         O  0.05991335  0.34767853  0.03283637    -0.56210
O48         O  0.05767625  0.26046096  0.09129813    -0.55020
C49         C  0.34148635  0.23028935  0.41408877     0.78740
O50         O  0.32490829  0.24219161  0.01278794    -0.57400
O51         O  0.32457249  0.33202941  0.46794654    -0.55850
O52         O  0.08946412  0.20672422  0.06323725    -0.55840
O53         O  0.03674158  0.26016716  0.44075933    -0.55010
C54         C  0.16616631  0.19894102  0.12325934    -0.00890
O55         O  0.10796370  0.05320760  0.47321820    -0.56220
C56         C  0.04011922  0.17535528  0.40649903     0.76410
O57         O  0.17446599  0.17819176  0.06768040    -0.57380
C58         C  0.14621804  0.04076182  0.00147865     0.76380
C59         C  0.14480539  0.14911697  0.43008297     0.78780
Cd60       Cd  0.12360552  0.13218564  0.48388902     1.37460
O61         O  0.04282583  0.13430415  0.41475362    -0.56210
O62         O  0.11093711  0.12834843  0.40679601    -0.55020
C63         C  0.15688383  0.17083777  0.08140151     0.78740
O64         O  0.16813821  0.16547641  0.47777264    -0.57400
O65         O  0.07523433  0.19444693  0.43157921    -0.55850
O66         O  0.17432410  0.07086127  0.02613482    -0.55840
O67         O  0.12787483  0.14139959  0.05430046    -0.55010
O68         O  0.22690508  0.84871487  0.02714539    -0.56220
C69         C  0.29469974  0.72625566  0.09437914     0.76410
O70         O  0.16884095  0.73580788  0.02620232    -0.57380
C71         C  0.18869763  0.86122978  0.99900507     0.76380
C72         C  0.17746038  0.73068371  0.41981127     0.78780
Cd73       Cd  0.21150971  0.76981016  0.01761085     1.37460
O74         O  0.29219868  0.76729153  0.08614976    -0.56210
O75         O  0.20675665  0.75982717  0.44691151    -0.55020
C76         C  0.19176191  0.75325152  0.07320716     0.78740
O77         O  0.15986582  0.72386712  0.43359784    -0.57400
O78         O  0.25953124  0.70741429  0.06944146    -0.55850
O79         O  0.16066014  0.83110726  0.47496393    -0.55840
O80         O  0.22460754  0.77535633  0.09513272    -0.55010
C81         C  0.99868603  0.20224356  0.37199240    -0.00890
O82         O  0.22614553  0.05318709  0.28446347    -0.56220
C83         C  0.29115251  0.17524825  0.33899598     0.76410
O84         O  0.15791728  0.17863794  0.17957316    -0.57380
C85         C  0.18657378  0.04092066  0.24862821     0.76380
C86         C  0.18874499  0.14879623  0.31977959     0.78780
Cd87       Cd  0.20866480  0.13197872  0.26477326     1.37460
O88         O  0.28910298  0.13420918  0.33226363    -0.56210
O89         O  0.22370514  0.13009989  0.34373857    -0.55020
C90         C  0.17596262  0.17124288  0.16661417     0.78740
O91         O  0.16316108  0.16327312  0.27000904    -0.57400
O92         O  0.25581830  0.19428164  0.31356735    -0.55850
O93         O  0.15755138  0.07054544  0.21676902    -0.55840
O94         O  0.20560344  0.14191385  0.19536039    -0.55010
O95         O  0.10689354  0.84735647  0.21410538    -0.56220
C96         C  0.04362155  0.72581066  0.16186175     0.76410
O97         O  0.17398232  0.73981734  0.23409941    -0.57270
C98         C  0.14618798  0.86040789  0.24965607     0.76380
C99         C  0.15843286  0.72978326  0.33466797     0.78780
Cd100      Cd  0.12618316  0.76896521  0.23658526     1.37460
O101        O  0.04584148  0.76681143  0.16884884    -0.56210
O102        O  0.12917713  0.75949575  0.30608485    -0.55020
C103        C  0.14772627  0.75228240  0.18343552     0.78740
O104        O  0.17637911  0.72192536  0.32166357    -0.57400
O105        O  0.07889081  0.70663865  0.18722611    -0.55850
O106        O  0.17584003  0.83153918  0.28285873    -0.55840
O107        O  0.11143361  0.76850245  0.15789753    -0.55010
C108        C  0.00263416  0.69907387  0.12886085    -0.00890
C109        C  0.17490182  0.99457842  0.24607871    -0.03740
C110        C  0.13948659  0.98508770  0.23546666    -0.00860
C111        C  0.13087284  0.94153031  0.23814585     0.04130
C112        C  0.15695403  0.90672106  0.25049068    -0.03740
C113        C  0.19190232  0.91613483  0.26018756    -0.00850
C114        C  0.20073253  0.95970824  0.25793039     0.04130
C115        C  0.11251919  0.02010183  0.22371681     0.38780
C116        C  0.21807779  0.88097794  0.27045147     0.38770
C117        C  0.23550686  0.96831032  0.26568131     0.37190
C118        C  0.09612064  0.93289608  0.23042505     0.37190
N119        N  0.26313756  0.97508109  0.27168094    -0.37630
N120        N  0.06853684  0.92609928  0.22450652    -0.37630
N121        N  0.23899939  0.85310941  0.27854003    -0.37070
N122        N  0.09089571  0.04782433  0.21435097    -0.37080
C123        C  0.17930084  0.75131550  0.09988187    -0.03740
C124        C  0.18476225  0.71264876  0.12627719    -0.00860
C125        C  0.17504052  0.71264094  0.15449448     0.04130
C126        C  0.15926075  0.75120549  0.15551024    -0.03740
C127        C  0.15369784  0.78978708  0.12872592    -0.00850
C128        C  0.16380692  0.78981089  0.10123804     0.04130
C129        C  0.20125539  0.67332381  0.12537535     0.38780
C130        C  0.13871572  0.83013536  0.13066733     0.38770
C131        C  0.15794582  0.82971139  0.07398804     0.37190
C132        C  0.18021590  0.67284140  0.18117816     0.37190
N133        N  0.15312970  0.86178976  0.05256158    -0.37630
N134        N  0.18420401  0.64109337  0.20240120    -0.37630
N135        N  0.12669240  0.86231822  0.13196116    -0.37070
N136        N  0.21448011  0.64202591  0.12459339    -0.37080
C137        C  0.17764259  0.15030571  0.34816193    -0.03740
C138        C  0.16695491  0.19004618  0.35489835    -0.00860
C139        C  0.15771878  0.19028276  0.38367795     0.04130
C140        C  0.15772011  0.15065087  0.40391749    -0.03740
C141        C  0.16820651  0.11102657  0.39688216    -0.00850
C142        C  0.17867230  0.11088795  0.36982541     0.04130
C143        C  0.16634526  0.23064071  0.33332998     0.38780
C144        C  0.16864617  0.07007178  0.41793105     0.38770
C145        C  0.18963060  0.06968009  0.36336509     0.37190
C146        C  0.14737388  0.23098498  0.39151204     0.37190
N147        N  0.19865170  0.03678022  0.35878908    -0.37630
N148        N  0.13923019  0.26342282  0.39801971    -0.37630
N149        N  0.16901108  0.03710916  0.43421735    -0.37070
N150        N  0.16578825  0.26305539  0.31604616    -0.37080
C151        C  0.15716235  0.99407600  0.00278300    -0.03740
C152        C  0.20144885  0.98063526  0.04056361    -0.00860
C153        C  0.21155254  0.93844370  0.03737078     0.04130
C154        C  0.17774779  0.90804682  0.99721326    -0.03740
C155        C  0.13345498  0.92158359  0.45914601    -0.00850
C156        C  0.12333460  0.96376534  0.46234114     0.04130
C157        C  0.23752560  0.00972370  0.08393936     0.38780
C158        C  0.09742277  0.89261100  0.41541563     0.38770
C159        C  0.07747304  0.97554393  0.42280232     0.37190
C160        C  0.25737803  0.92678868  0.07650068     0.37190
N161        N  0.04085938  0.98458079  0.39126430    -0.37630
N162        N  0.29395280  0.91785188  0.10765657    -0.37630
N163        N  0.06841902  0.86984067  0.38046428    -0.37070
N164        N  0.26658817  0.03256397  0.11860827    -0.37080
C165        C  0.99063465  0.49370733  0.00210189    -0.03740
C166        C  0.02249295  0.48549070  0.00583927    -0.00860
C167        C  0.03215160  0.44223292  0.00464605     0.04130
C168        C  0.00983509  0.40658364  0.99910496    -0.03740
C169        C  0.31133354  0.41478357  0.99540951    -0.00850
C170        C  0.30180357  0.45803946  0.49683074     0.04130
C171        C  0.04423828  0.52160416  0.00846694     0.38780
C172        C  0.28945484  0.37865829  0.49251286     0.38770
C173        C  0.27013523  0.46556861  0.49478881     0.37190
C174        C  0.06415146  0.43467918  0.00726475     0.37190
N175        N  0.24491665  0.47148833  0.49322862    -0.37630
N176        N  0.08967722  0.42872817  0.00936390    -0.37630
N177        N  0.27199475  0.34996380  0.49029693    -0.37070
N178        N  0.06157421  0.55029971  0.01045971    -0.37080
C179        C  0.98621953  0.65537205  0.40079578    -0.03740
C180        C  0.01572426  0.68634022  0.41458586    -0.00860
C181        C  0.02375310  0.68754811  0.38444567     0.04130
C182        C  0.33590169  0.65782164  0.34069713    -0.03740
C183        C  0.30569304  0.62777369  0.32603527    -0.00850
C184        C  0.29798379  0.62603327  0.35629006     0.04130
C185        C  0.03776132  0.71706540  0.45945668     0.38780
C186        C  0.28424927  0.59655330  0.28187219     0.38770
C187        C  0.27017770  0.59157364  0.34391480     0.37190
C188        C  0.05305633  0.72000105  0.39744155     0.37190
N189        N  0.24825598  0.56398766  0.33426988    -0.37630
N190        N  0.07600134  0.74610130  0.40712725    -0.37630
N191        N  0.26665088  0.57130492  0.24683712    -0.37070
N192        N  0.05554691  0.74159095  0.49532401    -0.37080
C193        C  0.32523542  0.24752533  0.15279175    -0.03740
C194        C  0.31027179  0.21288539  0.11660576    -0.00860
C195        C  0.31881476  0.21303439  0.08702876     0.04130
C196        C  0.34281993  0.24769104  0.09430010    -0.03740
C197        C  0.02358846  0.28272043  0.12983266    -0.00850
C198        C  0.01477157  0.28255239  0.15879345     0.04130
C199        C  0.28601073  0.17731014  0.10981271     0.38780
C200        C  0.04486228  0.32058564  0.13406488     0.38770
C201        C  0.02716093  0.31993665  0.19231190     0.37190
C202        C  0.30308450  0.17755768  0.04954075     0.37190
N203        N  0.03683255  0.35038455  0.21811188    -0.37630
N204        N  0.29025211  0.14925687  0.01945623    -0.37630
N205        N  0.06160224  0.35078279  0.13719451    -0.37070
N206        N  0.26676396  0.14894243  0.10465196    -0.37080
C207        C  0.34527082  0.49414105  0.25022078    -0.03740
C208        C  0.30153005  0.48284880  0.21694701    -0.00860
C209        C  0.29161697  0.44043675  0.22045178     0.04130
C210        C  0.32426605  0.40719106  0.25329207    -0.03740
C211        C  0.03460213  0.41829065  0.28584106    -0.00850
C212        C  0.04470107  0.46107056  0.28337006     0.04130
C213        C  0.26574752  0.51410516  0.17749765     0.38780
C214        C  0.06985695  0.38607206  0.32209136     0.38770
C215        C  0.08856771  0.47006024  0.31252716     0.37190
C216        C  0.24786473  0.43200764  0.19191638     0.37190
N217        N  0.12339792  0.47698099  0.33530426    -0.37630
N218        N  0.21312201  0.42558499  0.16961819    -0.37630
N219        N  0.09834699  0.36081015  0.35109686    -0.37070
N220        N  0.23663123  0.53826844  0.14509158    -0.37080
C221        C  0.16793022  0.70228248  0.87794660    -0.00890
O222        O  0.27254074  0.34737422  0.70756254    -0.56220
C223        C  0.20717119  0.22587690  0.65654949     0.76410
O224        O  0.00651103  0.24236363  0.73137510    -0.57380
C225        C  0.31176892  0.36049481  0.74866505     0.76380
C226        C  0.98861732  0.22972355  0.82835514     0.78780
Cd227      Cd  0.28985696  0.26909583  0.73071865     1.37470
O228        O  0.20914900  0.26703687  0.66264189    -0.56210
O229        O  0.29221794  0.25896026  0.79948292    -0.55020
C230        C  0.31285634  0.25053805  0.67944283     0.78740
O231        O  0.00651303  0.22210032  0.81523118    -0.57400
O232        O  0.24265921  0.20669036  0.68273215    -0.55850
O233        O  0.00659443  0.33118647  0.78384197    -0.55840
O234        O  0.27533572  0.26469469  0.65161313    -0.55010
O235        O  0.06249003  0.55502249  0.79752806    -0.56220
C236        C  0.12670288  0.67569138  0.84456931     0.76410
O237        O  0.32779805  0.67992843  0.68536690    -0.57380
C238        C  0.02406561  0.54088156  0.75456484     0.76380
C239        C  0.34961312  0.65353646  0.81561183     0.78780
Cd240      Cd  0.04363541  0.63289828  0.76973530     1.37460
O241        O  0.12456270  0.63444660  0.83894158    -0.56210
O242        O  0.05565736  0.64444534  0.84625117    -0.55020
C243        C  0.34581182  0.67191292  0.67249683     0.78740
O244        O  0.32257863  0.65582063  0.76297438    -0.57400
O245        O  0.09120208  0.69521426  0.81780564    -0.55850
O246        O  0.32946739  0.56924077  0.71698479    -0.55840
O247        O  0.04204687  0.64252468  0.70155079    -0.55010
O248        O  0.27377070  0.55256241  0.96831471    -0.56220
C249        C  0.20933040  0.67502051  0.91290644     0.76410
O250        O  0.00981872  0.67825135  0.57212998    -0.57380
C251        C  0.97962628  0.53966253  0.50141650     0.76380
C252        C  0.97791515  0.65203727  0.93260365     0.78780
Cd253      Cd  0.29265171  0.63136267  0.98909208     1.37460
O254        O  0.21184599  0.63393700  0.92122087    -0.56210
O255        O  0.27354594  0.64233702  0.90760072    -0.55020
C256        C  0.99292593  0.67073638  0.58675929     0.78740
O257        O  0.00784328  0.65624246  0.98555429    -0.57400
O258        O  0.24463751  0.69391649  0.93829194    -0.55850
O259        O  0.00903341  0.56844574  0.53246777    -0.55840
O260        O  0.29752514  0.64101593  0.56027657    -0.55010
O261        O  0.12179844  0.26687770  0.57972229    -0.56220
C262        C  0.02073212  0.36066977  0.49950982     0.76410
O263        O  0.32444173  0.22238471  0.92844497    -0.57380
C264        C  0.12460742  0.22584396  0.58835529     0.76380
C265        C  0.35325603  0.24905261  0.56502280     0.78780
Cd266      Cd  0.04101743  0.26902921  0.51153334     1.37460
O267        O  0.05991624  0.34767715  0.53283758    -0.56210
O268        O  0.05767698  0.26046268  0.59129855    -0.55020
C269        C  0.34148523  0.23029075  0.91408779     0.78740
O270        O  0.32490944  0.24219188  0.51278877    -0.57400
O271        O  0.32457011  0.33202915  0.96794803    -0.55850
O272        O  0.08946423  0.20672232  0.56323698    -0.55840
O273        O  0.03673972  0.26016928  0.94075782    -0.55010
C274        C  0.16616637  0.19893845  0.62325867    -0.00890
O275        O  0.10796881  0.05321191  0.97322585    -0.56220
C276        C  0.04011922  0.17535757  0.90649896     0.76410
O277        O  0.17446622  0.17818713  0.56768033    -0.57380
C278        C  0.14621345  0.04075593  0.50147452     0.76380
C279        C  0.14480451  0.14912044  0.93008157     0.78780
Cd280      Cd  0.12360650  0.13219000  0.98388987     1.37460
O281        O  0.04282657  0.13430635  0.91475355    -0.56210
O282        O  0.11093758  0.12835017  0.90679672    -0.55020
C283        C  0.15688363  0.17083445  0.58140102     0.78740
O284        O  0.16813650  0.16548233  0.97776986    -0.57400
O285        O  0.07523404  0.19445017  0.93157948    -0.55850
O286        O  0.17432090  0.07085440  0.52613469    -0.55840
O287        O  0.12787402  0.14139685  0.55429974    -0.55010
O288        O  0.22689916  0.84870951  0.52713781    -0.56220
C289        C  0.29469993  0.72625371  0.59437742     0.76410
O290        O  0.16885293  0.73579400  0.52621801    -0.57380
C291        C  0.18869216  0.86122269  0.49900087     0.76380
C292        C  0.17745512  0.73068758  0.91980948     0.78780
Cd293      Cd  0.21150971  0.76980474  0.51761053     1.37460
O294        O  0.29219869  0.76729011  0.58615067    -0.56210
O295        O  0.20675214  0.75983019  0.94690828    -0.55020
C296        C  0.19177033  0.75324576  0.57321758     0.78740
O297        O  0.15986259  0.72387242  0.93359892    -0.57400
O298        O  0.25953136  0.70741066  0.56943698    -0.55850
O299        O  0.16066420  0.83111559  0.97496502    -0.55840
O300        O  0.22460960  0.77535816  0.59513410    -0.55010
C301        C  0.99868546  0.20224494  0.87199178    -0.00890
O302        O  0.22614512  0.05318638  0.78446400    -0.56220
C303        C  0.29115238  0.17524886  0.83899575     0.76410
O304        O  0.15791740  0.17863632  0.67957269    -0.57380
C305        C  0.18657323  0.04092028  0.74862841     0.76380
C306        C  0.18874460  0.14879699  0.81977874     0.78780
Cd307      Cd  0.20866509  0.13197821  0.76477350     1.37460
O308        O  0.28910355  0.13420969  0.83226435    -0.56210
O309        O  0.22370464  0.13010000  0.84373811    -0.55020
C310        C  0.17596292  0.17124097  0.66661401     0.78740
O311        O  0.16316118  0.16327387  0.77000831    -0.57400
O312        O  0.25581781  0.19428172  0.81356656    -0.55850
O313        O  0.15755113  0.07054530  0.71676914    -0.55840
O314        O  0.20560406  0.14191224  0.69536088    -0.55010
O315        O  0.10689186  0.84735571  0.71410211    -0.56220
C316        C  0.04362258  0.72581013  0.66186444     0.76410
O317        O  0.17398735  0.73981655  0.73410852    -0.57270
C318        C  0.14618629  0.86040797  0.74965575     0.76380
C319        C  0.15842694  0.72978440  0.83466609     0.78780
Cd320      Cd  0.12618322  0.76896492  0.73658693     1.37460
O321        O  0.04584102  0.76681161  0.66884672    -0.56210
O322        O  0.12917173  0.75949742  0.80608168    -0.55020
C323        C  0.14773201  0.75227829  0.68344373     0.78740
O324        O  0.17637541  0.72192579  0.82166489    -0.57400
O325        O  0.07889282  0.70663778  0.68723285    -0.55850
O326        O  0.17583864  0.83154012  0.78286174    -0.55840
O327        O  0.11143759  0.76849631  0.65790199    -0.55010
C328        C  0.00263523  0.69907309  0.62886208    -0.00890
C329        C  0.17490076  0.99457814  0.74607847    -0.03740
C330        C  0.13948454  0.98508767  0.73546456    -0.00860
C331        C  0.13087023  0.94153035  0.73814316     0.04130
C332        C  0.15695225  0.90672104  0.75049003    -0.03740
C333        C  0.19190149  0.91613451  0.76018878    -0.00850
C334        C  0.20073189  0.95970774  0.75793144     0.04130
C335        C  0.11251670  0.02010197  0.72371344     0.38780
C336        C  0.21807776  0.88097735  0.77045475     0.38770
C337        C  0.23550686  0.96830935  0.76568349     0.37190
C338        C  0.09611658  0.93289622  0.73041961     0.37190
N339        N  0.26313806  0.97507970  0.77168397    -0.37630
N340        N  0.06853157  0.92609952  0.72449883    -0.37630
N341        N  0.23899990  0.85310855  0.77854489    -0.37070
N342        N  0.09089288  0.04782461  0.71434664    -0.37080
C343        C  0.17931135  0.75131056  0.59989517    -0.03740
C344        C  0.18477021  0.71264342  0.62628809    -0.00860
C345        C  0.17504860  0.71263613  0.65450565     0.04130
C346        C  0.15926931  0.75120105  0.65552167    -0.03740
C347        C  0.15370854  0.78978283  0.62873937    -0.00850
C348        C  0.16381939  0.78980667  0.60125350     0.04130
C349        C  0.20126040  0.67331738  0.62538332     0.38780
C350        C  0.13872517  0.83013096  0.63067906     0.38770
C351        C  0.15796018  0.82970761  0.57400563     0.37190
C352        C  0.18022385  0.67283682  0.68118956     0.37190
N353        N  0.15314558  0.86178643  0.55258099    -0.37630
N354        N  0.18421244  0.64108889  0.70241313    -0.37630
N355        N  0.12670046  0.86231363  0.63197101    -0.37070
N356        N  0.21448258  0.64201849  0.62459882    -0.37080
C357        C  0.17764172  0.15030717  0.84816046    -0.03740
C358        C  0.16695454  0.19004801  0.85489695    -0.00860
C359        C  0.15771816  0.19028524  0.88367628     0.04130
C360        C  0.15771880  0.15065359  0.90391552    -0.03740
C361        C  0.16820453  0.11102889  0.89687984    -0.00850
C362        C  0.17867049  0.11088963  0.86982330     0.04130
C363        C  0.16634565  0.23064227  0.83332895     0.38780
C364        C  0.16864353  0.07007426  0.91792828     0.38770
C365        C  0.18962804  0.06968136  0.86336259     0.37190
C366        C  0.14737354  0.23098787  0.89151011     0.37190
N367        N  0.19864853  0.03678116  0.85878624    -0.37630
N368        N  0.13922999  0.26342610  0.89801741    -0.37630
N369        N  0.16900795  0.03711161  0.93421404    -0.37070
N370        N  0.16578924  0.26305671  0.81604539    -0.37080
C371        C  0.15715725  0.99406955  0.50277912    -0.03740
C372        C  0.20144358  0.98062853  0.54055895    -0.00860
C373        C  0.21154686  0.93843655  0.53736648     0.04130
C374        C  0.17774197  0.90803941  0.49720986    -0.03740
C375        C  0.13346059  0.92159145  0.95914722    -0.00850
C376        C  0.12333985  0.96377256  0.96234292     0.04130
C377        C  0.23752076  0.00971710  0.58393355     0.38780
C378        C  0.09742849  0.89262022  0.91541346     0.38770
C379        C  0.07747806  0.97555153  0.92280200     0.37190
C380        C  0.25737234  0.92678107  0.57649677     0.37190
N381        N  0.04086422  0.98458870  0.89126234    -0.37630
N382        N  0.29394709  0.91784381  0.60765311    -0.37630
N383        N  0.06842483  0.86985105  0.88045929    -0.37070
N384        N  0.26658371  0.03255741  0.61860159    -0.37080
C385        C  0.99063983  0.49370795  0.50210162    -0.03740
C386        C  0.02249950  0.48549027  0.50584170    -0.00860
C387        C  0.03215717  0.44223216  0.50464787     0.04130
C388        C  0.00983860  0.40658370  0.49910407    -0.03740
C389        C  0.31133567  0.41478480  0.49540593    -0.00850
C390        C  0.30180080  0.45803790  0.99683437     0.04130
C391        C  0.04424733  0.52160305  0.50847296     0.38780
C392        C  0.28945467  0.37865618  0.99251881     0.38770
C393        C  0.27013429  0.46556567  0.99479587     0.37190
C394        C  0.06415824  0.43467724  0.50726890     0.37190
N395        N  0.24491720  0.47148412  0.99323848    -0.37630
N396        N  0.08968493  0.42872527  0.50936985    -0.37630
N397        N  0.27199609  0.34996097  0.99030467    -0.37070
N398        N  0.06158528  0.55029801  0.51046860    -0.37080
C399        C  0.98619873  0.65537417  0.90077891    -0.03740
C400        C  0.01568685  0.68635758  0.91455198    -0.00860
C401        C  0.02371884  0.68756537  0.88441530     0.04130
C402        C  0.33588292  0.65782696  0.84068279    -0.03740
C403        C  0.30568947  0.62776419  0.82603664    -0.00850
C404        C  0.29798020  0.62602180  0.85629130     0.04130
C405        C  0.03770326  0.71709855  0.95940160     0.38780
C406        C  0.28426406  0.59653002  0.78189283     0.38770
C407        C  0.27019395  0.59154700  0.84393706     0.37190
C408        C  0.05301271  0.72002706  0.89740234     0.37190
N409        N  0.24828856  0.56394883  0.83430949    -0.37630
N410        N  0.07595220  0.74613324  0.90708409    -0.37630
N411        N  0.26668098  0.57126970  0.74687416    -0.37070
N412        N  0.05547189  0.74163715  0.99525152    -0.37080
C413        C  0.32523672  0.24752562  0.65279287    -0.03740
C414        C  0.31027307  0.21288587  0.61660665    -0.00860
C415        C  0.31881596  0.21303519  0.58702957     0.04130
C416        C  0.34282075  0.24769217  0.59430064    -0.03740
C417        C  0.02358923  0.28272145  0.62983332    -0.00850
C418        C  0.01477287  0.28255285  0.65879475     0.04130
C419        C  0.28601250  0.17731017  0.60981394     0.38780
C420        C  0.04486224  0.32058714  0.63406481     0.38770
C421        C  0.02716250  0.31993678  0.69231379     0.37190
C422        C  0.30308608  0.17755840  0.54954181     0.37190
N423        N  0.03683436  0.35038426  0.71811446    -0.37630
N424        N  0.29025403  0.14925752  0.51945753    -0.37630
N425        N  0.06160149  0.35078470  0.63719378    -0.37070
N426        N  0.26676619  0.14894206  0.60465349    -0.37080
C427        C  0.34526149  0.49414565  0.75021631    -0.03740
C428        C  0.30152020  0.48285104  0.71693832    -0.00860
C429        C  0.29160764  0.44043793  0.72044161     0.04130
C430        C  0.32425807  0.40719351  0.75328436    -0.03740
C431        C  0.03459443  0.41829522  0.78583621    -0.00850
C432        C  0.04469284  0.46107628  0.78336729     0.04130
C433        C  0.26573686  0.51410624  0.67748696     0.38780
C434        C  0.06985019  0.38607764  0.82208734     0.38770
C435        C  0.08856042  0.47006845  0.81252857     0.37190
C436        C  0.24785442  0.43200638  0.69190213     0.37190
N437        N  0.12339141  0.47699136  0.83530907    -0.37630
N438        N  0.21311090  0.42558176  0.66960071    -0.37630
N439        N  0.09834097  0.36081655  0.85109353    -0.37070
N440        N  0.23661999  0.53826885  0.64508040    -0.37080
C441        C  0.50127115  0.70228003  0.37794902    -0.00890
O442        O  0.60587936  0.34737455  0.20757013    -0.56220
C443        C  0.54050474  0.22587906  0.15655071     0.76410
O444        O  0.33984207  0.24235828  0.23137293    -0.57380
C445        C  0.64510846  0.36049307  0.24867177     0.76380
C446        C  0.32195163  0.22972239  0.32835624     0.78780
Cd447      Cd  0.62319167  0.26909562  0.23072062     1.37470
O448        O  0.54248325  0.26703895  0.16264404    -0.56210
O449        O  0.62555297  0.25895983  0.29948497    -0.55020
C450        C  0.64618872  0.25053797  0.17944210     0.78740
O451        O  0.33984695  0.22209881  0.31523181    -0.57400
O452        O  0.57599234  0.20669199  0.18273267    -0.55850
O453        O  0.33993305  0.33118328  0.28384630    -0.55840
O454        O  0.60867018  0.26469991  0.15161465    -0.55010
O455        O  0.39583437  0.55501630  0.29752921    -0.56220
C456        C  0.46004484  0.67568705  0.34457122     0.76410
O457        O  0.66113631  0.67992556  0.18537136    -0.57380
C458        C  0.35740910  0.54087617  0.25456787     0.76380
C459        C  0.68296197  0.65352810  0.31562234     0.78780
Cd460      Cd  0.37697848  0.63289252  0.26973846     1.37460
O461        O  0.45790553  0.63444266  0.33894129    -0.56210
O462        O  0.38900485  0.64443325  0.34625853    -0.55020
C463        C  0.67914723  0.67191213  0.17249705     0.78740
O464        O  0.65592615  0.65581558  0.26298468    -0.57400
O465        O  0.42454381  0.69520834  0.31780909    -0.55850
O466        O  0.66281050  0.56923578  0.21698896    -0.55840
O467        O  0.37538253  0.64252407  0.20154796    -0.55010
O468        O  0.60711065  0.55256533  0.46831225    -0.56220
C469        C  0.54267263  0.67501994  0.41290935     0.76410
O470        O  0.34314644  0.67824948  0.07212448    -0.57380
C471        C  0.31295301  0.53966176  0.00141536     0.76380
C472        C  0.31126801  0.65203762  0.43261951     0.78780
Cd473      Cd  0.62599586  0.63136393  0.48909866     1.37460
O474        O  0.54518939  0.63393613  0.42122308    -0.56210
O475        O  0.60689493  0.64235210  0.40761253    -0.55020
C476        C  0.32625447  0.67073717  0.08675529     0.78740
O477        O  0.34119755  0.65623065  0.48557200    -0.57400
O478        O  0.57797952  0.69391754  0.43829626    -0.55850
O479        O  0.34235864  0.56844707  0.03246116    -0.55840
O480        O  0.63085169  0.64101867  0.06027259    -0.55010
O481        O  0.45513122  0.26688007  0.07972282    -0.56220
C482        C  0.35406253  0.36067014  0.99951025     0.76410
O483        O  0.65777561  0.22238423  0.42844533    -0.57380
C484        C  0.45794056  0.22584630  0.08835589     0.76380
C485        C  0.68658849  0.24905140  0.06502222     0.78780
Cd486      Cd  0.37434955  0.26903009  0.01153281     1.37460
O487        O  0.39324669  0.34767853  0.03283636    -0.56210
O488        O  0.39100958  0.26046098  0.09129813    -0.55020
C489        C  0.67481968  0.23028935  0.41408877     0.78740
O490        O  0.65824162  0.24219161  0.01278794    -0.57400
O491        O  0.65790583  0.33202940  0.46794654    -0.55850
O492        O  0.42279746  0.20672422  0.06323725    -0.55840
O493        O  0.37007491  0.26016716  0.44075934    -0.55010
C494        C  0.49949964  0.19894102  0.12325934    -0.00890
O495        O  0.44129703  0.05320760  0.47321820    -0.56220
C496        C  0.37345256  0.17535528  0.40649903     0.76410
O497        O  0.50779933  0.17819176  0.06768040    -0.57380
C498        C  0.47955138  0.04076182  0.00147865     0.76380
C499        C  0.47813872  0.14911697  0.43008297     0.78780
Cd500      Cd  0.45693886  0.13218564  0.48388902     1.37460
O501        O  0.37615916  0.13430415  0.41475362    -0.56210
O502        O  0.44427044  0.12834843  0.40679601    -0.55020
C503        C  0.49021717  0.17083777  0.08140151     0.78740
O504        O  0.50147154  0.16547641  0.47777264    -0.57400
O505        O  0.40856766  0.19444693  0.43157921    -0.55850
O506        O  0.50765744  0.07086128  0.02613482    -0.55840
O507        O  0.46120817  0.14139959  0.05430046    -0.55010
O508        O  0.56023841  0.84871488  0.02714538    -0.56220
C509        C  0.62803307  0.72625567  0.09437914     0.76410
O510        O  0.50217429  0.73580789  0.02620232    -0.57380
C511        C  0.52203096  0.86122979  0.99900507     0.76380
C512        C  0.51079372  0.73068371  0.41981126     0.78780
Cd513      Cd  0.54484304  0.76981017  0.01761085     1.37460
O514        O  0.62553201  0.76729153  0.08614976    -0.56210
O515        O  0.54008998  0.75982717  0.44691151    -0.55020
C516        C  0.52509525  0.75325153  0.07320717     0.78740
O517        O  0.49319915  0.72386712  0.43359784    -0.57400
O518        O  0.59286457  0.70741430  0.06944145    -0.55850
O519        O  0.49399347  0.83110726  0.47496393    -0.55840
O520        O  0.55794088  0.77535634  0.09513273    -0.55010
C521        C  0.33201937  0.20224356  0.37199240    -0.00890
O522        O  0.55947887  0.05318709  0.28446347    -0.56220
C523        C  0.62448584  0.17524825  0.33899598     0.76410
O524        O  0.49125062  0.17863795  0.17957316    -0.57380
C525        C  0.51990711  0.04092066  0.24862821     0.76380
C526        C  0.52207832  0.14879623  0.31977959     0.78780
Cd527      Cd  0.54199813  0.13197872  0.26477326     1.37460
O528        O  0.62243631  0.13420918  0.33226363    -0.56210
O529        O  0.55703848  0.13009989  0.34373857    -0.55020
C530        C  0.50929596  0.17124288  0.16661417     0.78740
O531        O  0.49649442  0.16327312  0.27000904    -0.57400
O532        O  0.58915163  0.19428164  0.31356735    -0.55850
O533        O  0.49088471  0.07054545  0.21676901    -0.55840
O534        O  0.53893678  0.14191385  0.19536039    -0.55010
O535        O  0.44022686  0.84735647  0.21410537    -0.56220
C536        C  0.37695488  0.72581066  0.16186175     0.76410
O537        O  0.50731566  0.73981735  0.23409942    -0.57270
C538        C  0.47952130  0.86040789  0.24965606     0.76380
C539        C  0.49176619  0.72978326  0.33466796     0.78780
Cd540      Cd  0.45951649  0.76896521  0.23658526     1.37460
O541        O  0.37917481  0.76681143  0.16884884    -0.56210
O542        O  0.46251046  0.75949575  0.30608485    -0.55020
C543        C  0.48105961  0.75228240  0.18343552     0.78740
O544        O  0.50971244  0.72192536  0.32166357    -0.57400
O545        O  0.41222415  0.70663865  0.18722611    -0.55850
O546        O  0.50917336  0.83153918  0.28285873    -0.55840
O547        O  0.44476695  0.76850245  0.15789753    -0.55010
C548        C  0.33596749  0.69907387  0.12886085    -0.00890
C549        C  0.50823515  0.99457842  0.24607870    -0.03740
C550        C  0.47281992  0.98508770  0.23546665    -0.00860
C551        C  0.46420617  0.94153032  0.23814585     0.04130
C552        C  0.49028736  0.90672106  0.25049067    -0.03740
C553        C  0.52523565  0.91613483  0.26018755    -0.00850
C554        C  0.53406586  0.95970824  0.25793038     0.04130
C555        C  0.44585252  0.02010183  0.22371681     0.38780
C556        C  0.55141112  0.88097794  0.27045146     0.38770
C557        C  0.56884019  0.96831032  0.26568131     0.37190
C558        C  0.42945397  0.93289608  0.23042503     0.37190
N559        N  0.59647089  0.97508109  0.27168094    -0.37630
N560        N  0.40187016  0.92609928  0.22450650    -0.37630
N561        N  0.57233272  0.85310941  0.27854002    -0.37070
N562        N  0.42422904  0.04782433  0.21435096    -0.37080
C563        C  0.51263418  0.75131551  0.09988188    -0.03740
C564        C  0.51809559  0.71264876  0.12627721    -0.00860
C565        C  0.50837386  0.71264095  0.15449450     0.04130
C566        C  0.49259408  0.75120550  0.15551024    -0.03740
C567        C  0.48703117  0.78978708  0.12872592    -0.00850
C568        C  0.49714025  0.78981089  0.10123804     0.04130
C569        C  0.53458874  0.67332382  0.12537538     0.38780
C570        C  0.47204905  0.83013535  0.13066733     0.38770
C571        C  0.49127915  0.82971139  0.07398803     0.37190
C572        C  0.51354926  0.67284141  0.18117818     0.37190
N573        N  0.48646302  0.86178975  0.05256157    -0.37630
N574        N  0.51753737  0.64109338  0.20240123    -0.37630
N575        N  0.46002572  0.86231822  0.13196115    -0.37070
N576        N  0.54781347  0.64202592  0.12459343    -0.37080
C577        C  0.51097592  0.15030571  0.34816193    -0.03740
C578        C  0.50028825  0.19004618  0.35489835    -0.00860
C579        C  0.49105212  0.19028276  0.38367796     0.04130
C580        C  0.49105345  0.15065087  0.40391750    -0.03740
C581        C  0.50153984  0.11102657  0.39688216    -0.00850
C582        C  0.51200564  0.11088795  0.36982541     0.04130
C583        C  0.49967860  0.23064071  0.33332999     0.38780
C584        C  0.50197951  0.07007178  0.41793104     0.38770
C585        C  0.52296393  0.06968008  0.36336509     0.37190
C586        C  0.48070722  0.23098498  0.39151204     0.37190
N587        N  0.53198503  0.03678022  0.35878907    -0.37630
N588        N  0.47256353  0.26342282  0.39801972    -0.37630
N589        N  0.50234442  0.03710916  0.43421734    -0.37070
N590        N  0.49912159  0.26305539  0.31604617    -0.37080
C591        C  0.49049568  0.99407600  0.00278300    -0.03740
C592        C  0.53478219  0.98063527  0.04056362    -0.00860
C593        C  0.54488587  0.93844370  0.03737079     0.04130
C594        C  0.51108113  0.90804682  0.99721326    -0.03740
C595        C  0.46678832  0.92158359  0.45914600    -0.00850
C596        C  0.45666793  0.96376534  0.46234113     0.04130
C597        C  0.57085893  0.00972370  0.08393937     0.38780
C598        C  0.43075610  0.89261100  0.41541563     0.38770
C599        C  0.41080637  0.97554393  0.42280232     0.37190
C600        C  0.59071136  0.92678868  0.07650069     0.37190
N601        N  0.37419272  0.98458079  0.39126429    -0.37630
N602        N  0.62728613  0.91785188  0.10765658    -0.37630
N603        N  0.40175236  0.86984067  0.38046427    -0.37070
N604        N  0.59992150  0.03256397  0.11860828    -0.37080
C605        C  0.32396798  0.49370733  0.00210188    -0.03740
C606        C  0.35582628  0.48549070  0.00583925    -0.00860
C607        C  0.36548493  0.44223293  0.00464603     0.04130
C608        C  0.34316842  0.40658365  0.99910495    -0.03740
C609        C  0.64466687  0.41478357  0.99540952    -0.00850
C610        C  0.63513691  0.45803946  0.49683073     0.04130
C611        C  0.37757160  0.52160417  0.00846691     0.38780
C612        C  0.62278817  0.37865829  0.49251285     0.38770
C613        C  0.60346856  0.46556860  0.49478881     0.37190
C614        C  0.39748478  0.43467919  0.00726473     0.37190
N615        N  0.57824998  0.47148832  0.49322861    -0.37630
N616        N  0.42301054  0.42872817  0.00936387    -0.37630
N617        N  0.60532808  0.34996379  0.49029692    -0.37070
N618        N  0.39490752  0.55029971  0.01045968    -0.37080
C619        C  0.31955286  0.65537205  0.40079578    -0.03740
C620        C  0.34905759  0.68634022  0.41458586    -0.00860
C621        C  0.35708643  0.68754811  0.38444567     0.04130
C622        C  0.66923503  0.65782164  0.34069713    -0.03740
C623        C  0.63902638  0.62777368  0.32603528    -0.00850
C624        C  0.63131714  0.62603326  0.35629006     0.04130
C625        C  0.37109465  0.71706540  0.45945668     0.38780
C626        C  0.61758261  0.59655329  0.28187221     0.38770
C627        C  0.60351104  0.59157363  0.34391482     0.37190
C628        C  0.38638966  0.72000105  0.39744155     0.37190
N629        N  0.58158933  0.56398764  0.33426990    -0.37630
N630        N  0.40933467  0.74610131  0.40712725    -0.37630
N631        N  0.59998423  0.57130490  0.24683714    -0.37070
N632        N  0.38888024  0.74159096  0.49532401    -0.37080
C633        C  0.65856876  0.24752532  0.15279176    -0.03740
C634        C  0.64360512  0.21288539  0.11660576    -0.00860
C635        C  0.65214809  0.21303439  0.08702876     0.04130
C636        C  0.67615326  0.24769104  0.09430010    -0.03740
C637        C  0.35692182  0.28272043  0.12983268    -0.00850
C638        C  0.34810492  0.28255239  0.15879348     0.04130
C639        C  0.61934406  0.17731014  0.10981270     0.38780
C640        C  0.37819564  0.32058564  0.13406491     0.38770
C641        C  0.36049430  0.31993664  0.19231195     0.37190
C642        C  0.63641782  0.17755769  0.04954073     0.37190
N643        N  0.37016594  0.35038453  0.21811194    -0.37630
N644        N  0.62358543  0.14925688  0.01945621    -0.37630
N645        N  0.39493560  0.35078279  0.13719455    -0.37070
N646        N  0.60009729  0.14894243  0.10465194    -0.37080
C647        C  0.67860415  0.49414105  0.25022078    -0.03740
C648        C  0.63486338  0.48284880  0.21694701    -0.00860
C649        C  0.62495030  0.44043675  0.22045178     0.04130
C650        C  0.65759938  0.40719106  0.25329206    -0.03740
C651        C  0.36793546  0.41829065  0.28584107    -0.00850
C652        C  0.37803440  0.46107056  0.28337007     0.04130
C653        C  0.59908085  0.51410516  0.17749764     0.38780
C654        C  0.40319028  0.38607207  0.32209138     0.38770
C655        C  0.42190104  0.47006024  0.31252717     0.37190
C656        C  0.58119806  0.43200764  0.19191637     0.37190
N657        N  0.45673125  0.47698099  0.33530427    -0.37630
N658        N  0.54645534  0.42558498  0.16961818    -0.37630
N659        N  0.43168032  0.36081016  0.35109689    -0.37070
N660        N  0.56996456  0.53826844  0.14509158    -0.37080
C661        C  0.50126356  0.70228248  0.87794660    -0.00890
O662        O  0.60587408  0.34737422  0.70756254    -0.56220
C663        C  0.54050452  0.22587690  0.65654949     0.76410
O664        O  0.33984432  0.24236359  0.73137506    -0.57380
C665        C  0.64510226  0.36049481  0.74866505     0.76380
C666        C  0.32195066  0.22972355  0.82835514     0.78780
Cd667      Cd  0.62319030  0.26909583  0.73071865     1.37470
O668        O  0.54248234  0.26703687  0.66264189    -0.56210
O669        O  0.62555128  0.25896026  0.79948291    -0.55020
C670        C  0.64618967  0.25053805  0.67944283     0.78740
O671        O  0.33984637  0.22210032  0.81523118    -0.57400
O672        O  0.57599254  0.20669036  0.68273215    -0.55850
O673        O  0.33992777  0.33118646  0.78384196    -0.55840
O674        O  0.60866906  0.26469470  0.65161313    -0.55010
O675        O  0.39582337  0.55502249  0.79752806    -0.56220
C676        C  0.46003621  0.67569138  0.84456931     0.76410
O677        O  0.66113139  0.67992842  0.68536690    -0.57380
C678        C  0.35739895  0.54088155  0.75456484     0.76380
C679        C  0.68294645  0.65353646  0.81561183     0.78780
Cd680      Cd  0.37696874  0.63289828  0.76973530     1.37460
O681        O  0.45789604  0.63444660  0.83894158    -0.56210
O682        O  0.38899069  0.64444534  0.84625117    -0.55020
C683        C  0.67914515  0.67191291  0.67249683     0.78740
O684        O  0.65591196  0.65582063  0.76297438    -0.57400
O685        O  0.42453542  0.69521426  0.81780564    -0.55850
O686        O  0.66280072  0.56924077  0.71698479    -0.55840
O687        O  0.37538021  0.64252468  0.70155079    -0.55010
O688        O  0.60710403  0.55256241  0.96831471    -0.56220
C689        C  0.54266373  0.67502051  0.91290644     0.76410
O690        O  0.34315205  0.67825135  0.57212999    -0.57380
C691        C  0.31295961  0.53966253  0.50141651     0.76380
C692        C  0.31124847  0.65203727  0.93260365     0.78780
Cd693      Cd  0.62598504  0.63136267  0.98909208     1.37460
O694        O  0.54517932  0.63393700  0.92122087    -0.56210
O695        O  0.60687927  0.64233703  0.90760072    -0.55020
C696        C  0.32625926  0.67073638  0.58675930     0.78740
O697        O  0.34117661  0.65624246  0.98555428    -0.57400
O698        O  0.57797084  0.69391649  0.93829194    -0.55850
O699        O  0.34236675  0.56844574  0.53246778    -0.55840
O700        O  0.63085847  0.64101593  0.56027657    -0.55010
O701        O  0.45513178  0.26687769  0.57972229    -0.56220
C702        C  0.35406545  0.36066977  0.49950983     0.76410
O703        O  0.65777506  0.22238471  0.92844496    -0.57380
C704        C  0.45794076  0.22584396  0.58835529     0.76380
C705        C  0.68658937  0.24905261  0.56502280     0.78780
Cd706      Cd  0.37435076  0.26902920  0.51153334     1.37460
O707        O  0.39324958  0.34767714  0.53283759    -0.56210
O708        O  0.39101031  0.26046268  0.59129854    -0.55020
C709        C  0.67481856  0.23029075  0.91408779     0.78740
O710        O  0.65824278  0.24219187  0.51278877    -0.57400
O711        O  0.65790344  0.33202916  0.96794803    -0.55850
O712        O  0.42279757  0.20672232  0.56323698    -0.55840
O713        O  0.37007305  0.26016928  0.94075782    -0.55010
C714        C  0.49949970  0.19893845  0.62325867    -0.00890
O715        O  0.44130214  0.05321191  0.97322585    -0.56220
C716        C  0.37345255  0.17535757  0.90649895     0.76410
O717        O  0.50779956  0.17818713  0.56768033    -0.57380
C718        C  0.47954679  0.04075593  0.50147452     0.76380
C719        C  0.47813784  0.14912044  0.93008157     0.78780
Cd720      Cd  0.45693983  0.13219001  0.98388987     1.37460
O721        O  0.37615990  0.13430635  0.91475355    -0.56210
O722        O  0.44427092  0.12835017  0.90679672    -0.55020
C723        C  0.49021696  0.17083445  0.58140102     0.78740
O724        O  0.50146983  0.16548233  0.97776986    -0.57400
O725        O  0.40856737  0.19445017  0.93157948    -0.55850
O726        O  0.50765424  0.07085439  0.52613469    -0.55840
O727        O  0.46120736  0.14139685  0.55429974    -0.55010
O728        O  0.56023250  0.84870951  0.52713781    -0.56220
C729        C  0.62803326  0.72625371  0.59437742     0.76410
O730        O  0.50218626  0.73579400  0.52621800    -0.57380
C731        C  0.52202549  0.86122269  0.49900087     0.76380
C732        C  0.51078845  0.73068759  0.91980948     0.78780
Cd733      Cd  0.54484304  0.76980473  0.51761053     1.37460
O734        O  0.62553202  0.76729010  0.58615067    -0.56210
O735        O  0.54008548  0.75983020  0.94690828    -0.55020
C736        C  0.52510366  0.75324576  0.57321758     0.78740
O737        O  0.49319592  0.72387242  0.93359892    -0.57400
O738        O  0.59286469  0.70741066  0.56943698    -0.55850
O739        O  0.49399753  0.83111559  0.97496502    -0.55840
O740        O  0.55794293  0.77535816  0.59513410    -0.55010
C741        C  0.33201879  0.20224495  0.87199178    -0.00890
O742        O  0.55947846  0.05318638  0.78446400    -0.56220
C743        C  0.62448571  0.17524886  0.83899575     0.76410
O744        O  0.49125073  0.17863632  0.67957269    -0.57380
C745        C  0.51990656  0.04092028  0.74862841     0.76380
C746        C  0.52207794  0.14879699  0.81977875     0.78780
Cd747      Cd  0.54199843  0.13197821  0.76477350     1.37460
O748        O  0.62243689  0.13420969  0.83226435    -0.56210
O749        O  0.55703798  0.13010000  0.84373811    -0.55020
C750        C  0.50929626  0.17124097  0.66661401     0.78740
O751        O  0.49649452  0.16327387  0.77000832    -0.57400
O752        O  0.58915114  0.19428172  0.81356656    -0.55850
O753        O  0.49088446  0.07054530  0.71676914    -0.55840
O754        O  0.53893739  0.14191223  0.69536088    -0.55010
O755        O  0.44022520  0.84735571  0.71410211    -0.56220
C756        C  0.37695592  0.72581013  0.66186444     0.76410
O757        O  0.50732068  0.73981655  0.73410851    -0.57270
C758        C  0.47951962  0.86040797  0.74965575     0.76380
C759        C  0.49176027  0.72978440  0.83466609     0.78780
Cd760      Cd  0.45951655  0.76896492  0.73658693     1.37460
O761        O  0.37917436  0.76681161  0.66884672    -0.56210
O762        O  0.46250507  0.75949742  0.80608168    -0.55020
C763        C  0.48106534  0.75227829  0.68344373     0.78740
O764        O  0.50970875  0.72192580  0.82166489    -0.57400
O765        O  0.41222615  0.70663778  0.68723285    -0.55850
O766        O  0.50917197  0.83154013  0.78286174    -0.55840
O767        O  0.44477092  0.76849632  0.65790199    -0.55010
C768        C  0.33596857  0.69907309  0.62886208    -0.00890
C769        C  0.50823409  0.99457814  0.74607847    -0.03740
C770        C  0.47281787  0.98508767  0.73546456    -0.00860
C771        C  0.46420357  0.94153035  0.73814316     0.04130
C772        C  0.49028558  0.90672104  0.75049003    -0.03740
C773        C  0.52523483  0.91613451  0.76018878    -0.00850
C774        C  0.53406522  0.95970774  0.75793144     0.04130
C775        C  0.44585003  0.02010198  0.72371344     0.38780
C776        C  0.55141109  0.88097735  0.77045476     0.38770
C777        C  0.56884020  0.96830935  0.76568349     0.37190
C778        C  0.42944991  0.93289622  0.73041961     0.37190
N779        N  0.59647139  0.97507970  0.77168397    -0.37630
N780        N  0.40186491  0.92609953  0.72449883    -0.37630
N781        N  0.57233323  0.85310855  0.77854489    -0.37070
N782        N  0.42422621  0.04782462  0.71434663    -0.37080
C783        C  0.51264468  0.75131055  0.59989517    -0.03740
C784        C  0.51810353  0.71264341  0.62628808    -0.00860
C785        C  0.50838192  0.71263613  0.65450565     0.04130
C786        C  0.49260264  0.75120105  0.65552166    -0.03740
C787        C  0.48704187  0.78978283  0.62873937    -0.00850
C788        C  0.49715272  0.78980667  0.60125350     0.04130
C789        C  0.53459372  0.67331737  0.62538330     0.38780
C790        C  0.47205851  0.83013096  0.63067906     0.38770
C791        C  0.49129352  0.82970761  0.57400563     0.37190
C792        C  0.51355717  0.67283682  0.68118954     0.37190
N793        N  0.48647892  0.86178644  0.55258100    -0.37630
N794        N  0.51754576  0.64108888  0.70241311    -0.37630
N795        N  0.46003380  0.86231364  0.63197101    -0.37070
N796        N  0.54781589  0.64201848  0.62459880    -0.37080
C797        C  0.51097506  0.15030717  0.84816046    -0.03740
C798        C  0.50028788  0.19004802  0.85489697    -0.00860
C799        C  0.49105151  0.19028524  0.88367629     0.04130
C800        C  0.49105213  0.15065359  0.90391552    -0.03740
C801        C  0.50153786  0.11102889  0.89687984    -0.00850
C802        C  0.51200382  0.11088963  0.86982330     0.04130
C803        C  0.49967900  0.23064227  0.83332897     0.38780
C804        C  0.50197686  0.07007426  0.91792827     0.38770
C805        C  0.52296137  0.06968136  0.86336259     0.37190
C806        C  0.48070689  0.23098787  0.89151012     0.37190
N807        N  0.53198186  0.03678116  0.85878624    -0.37630
N808        N  0.47256334  0.26342610  0.89801743    -0.37630
N809        N  0.50234127  0.03711161  0.93421403    -0.37070
N810        N  0.49912260  0.26305671  0.81604542    -0.37080
C811        C  0.49049058  0.99406955  0.50277912    -0.03740
C812        C  0.53477691  0.98062852  0.54055895    -0.00860
C813        C  0.54488020  0.93843654  0.53736648     0.04130
C814        C  0.51107531  0.90803941  0.49720986    -0.03740
C815        C  0.46679393  0.92159145  0.95914721    -0.00850
C816        C  0.45667319  0.96377256  0.96234291     0.04130
C817        C  0.57085409  0.00971709  0.58393356     0.38780
C818        C  0.43076182  0.89262023  0.91541345     0.38770
C819        C  0.41081139  0.97555154  0.92280199     0.37190
C820        C  0.59070568  0.92678107  0.57649677     0.37190
N821        N  0.37419755  0.98458871  0.89126232    -0.37630
N822        N  0.62728042  0.91784380  0.60765312    -0.37630
N823        N  0.40175817  0.86985105  0.88045928    -0.37070
N824        N  0.59991704  0.03255740  0.61860159    -0.37080
C825        C  0.32397317  0.49370794  0.50210163    -0.03740
C826        C  0.35583284  0.48549026  0.50584171    -0.00860
C827        C  0.36549051  0.44223215  0.50464788     0.04130
C828        C  0.34317193  0.40658370  0.49910408    -0.03740
C829        C  0.64466900  0.41478480  0.49540593    -0.00850
C830        C  0.63513413  0.45803790  0.99683437     0.04130
C831        C  0.37758067  0.52160304  0.50847299     0.38780
C832        C  0.62278801  0.37865618  0.99251881     0.38770
C833        C  0.60346763  0.46556567  0.99479587     0.37190
C834        C  0.39749159  0.43467723  0.50726893     0.37190
N835        N  0.57825054  0.47148413  0.99323849    -0.37630
N836        N  0.42301828  0.42872527  0.50936988    -0.37630
N837        N  0.60532943  0.34996097  0.99030467    -0.37070
N838        N  0.39491864  0.55029800  0.51046863    -0.37080
C839        C  0.31953206  0.65537417  0.90077890    -0.03740
C840        C  0.34902018  0.68635758  0.91455198    -0.00860
C841        C  0.35705218  0.68756537  0.88441530     0.04130
C842        C  0.66921625  0.65782696  0.84068278    -0.03740
C843        C  0.63902279  0.62776420  0.82603663    -0.00850
C844        C  0.63131352  0.62602180  0.85629129     0.04130
C845        C  0.37103660  0.71709854  0.95940160     0.38780
C846        C  0.61759738  0.59653003  0.78189282     0.38770
C847        C  0.60352727  0.59154701  0.84393705     0.37190
C848        C  0.38634605  0.72002706  0.89740234     0.37190
N849        N  0.58162188  0.56394884  0.83430947    -0.37630
N850        N  0.40928554  0.74613323  0.90708410    -0.37630
N851        N  0.60001430  0.57126971  0.74687414    -0.37070
N852        N  0.38880524  0.74163714  0.99525153    -0.37080
C853        C  0.65857005  0.24752562  0.65279287    -0.03740
C854        C  0.64360641  0.21288587  0.61660666    -0.00860
C855        C  0.65214930  0.21303519  0.58702958     0.04130
C856        C  0.67615409  0.24769217  0.59430064    -0.03740
C857        C  0.35692251  0.28272147  0.62983326    -0.00850
C858        C  0.34810614  0.28255287  0.65879468     0.04130
C859        C  0.61934585  0.17731017  0.60981394     0.38780
C860        C  0.37819551  0.32058716  0.63406474     0.38770
C861        C  0.36049573  0.31993682  0.69231367     0.37190
C862        C  0.63641942  0.17755839  0.54954182     0.37190
N863        N  0.37016756  0.35038432  0.71811430    -0.37630
N864        N  0.62358737  0.14925751  0.51945754    -0.37630
N865        N  0.39493475  0.35078473  0.63719368    -0.37070
N866        N  0.60009953  0.14894206  0.60465350    -0.37080
C867        C  0.67859483  0.49414565  0.75021632    -0.03740
C868        C  0.63485354  0.48285104  0.71693832    -0.00860
C869        C  0.62494098  0.44043793  0.72044162     0.04130
C870        C  0.65759140  0.40719351  0.75328436    -0.03740
C871        C  0.36792777  0.41829521  0.78583620    -0.00850
C872        C  0.37802618  0.46107628  0.78336728     0.04130
C873        C  0.59907019  0.51410623  0.67748696     0.38780
C874        C  0.40318352  0.38607763  0.82208730     0.38770
C875        C  0.42189376  0.47006844  0.81252855     0.37190
C876        C  0.58118776  0.43200638  0.69190213     0.37190
N877        N  0.45672474  0.47699136  0.83530904    -0.37630
N878        N  0.54644424  0.42558176  0.66960072    -0.37630
N879        N  0.43167430  0.36081653  0.85109347    -0.37070
N880        N  0.56995333  0.53826885  0.64508040    -0.37080
C881        C  0.83460448  0.70228003  0.37794902    -0.00890
O882        O  0.93921270  0.34737455  0.20757014    -0.56220
C883        C  0.87383806  0.22587906  0.15655071     0.76410
O884        O  0.67317542  0.24235829  0.23137295    -0.57380
C885        C  0.97844180  0.36049307  0.24867178     0.76380
C886        C  0.65528496  0.22972239  0.32835624     0.78780
Cd887      Cd  0.95652499  0.26909562  0.23072062     1.37470
O888        O  0.87581658  0.26703895  0.16264404    -0.56210
O889        O  0.95888630  0.25895983  0.29948496    -0.55020
C890        C  0.97952204  0.25053797  0.17944208     0.78740
O891        O  0.67318029  0.22209881  0.31523182    -0.57400
O892        O  0.90932567  0.20669199  0.18273266    -0.55850
O893        O  0.67326638  0.33118328  0.28384631    -0.55840
O894        O  0.94200350  0.26469994  0.15161464    -0.55010
O895        O  0.72916770  0.55501631  0.29752921    -0.56220
C896        C  0.79337817  0.67568706  0.34457122     0.76410
O897        O  0.99446964  0.67992556  0.18537137    -0.57380
C898        C  0.69074243  0.54087617  0.25456786     0.76380
C899        C  0.01629530  0.65352810  0.31562234     0.78780
Cd900      Cd  0.71031181  0.63289253  0.26973845     1.37460
O901        O  0.79123886  0.63444267  0.33894129    -0.56210
O902        O  0.72233818  0.64443325  0.34625853    -0.55020
C903        C  0.01248057  0.67191213  0.17249706     0.78740
O904        O  0.98925948  0.65581557  0.26298468    -0.57400
O905        O  0.75787714  0.69520835  0.31780909    -0.55850
O906        O  0.99614384  0.56923578  0.21698896    -0.55840
O907        O  0.70871587  0.64252407  0.20154796    -0.55010
O908        O  0.94044398  0.55256533  0.46831225    -0.56220
C909        C  0.87600596  0.67501994  0.41290935     0.76410
O910        O  0.67647977  0.67824949  0.07212448    -0.57380
C911        C  0.64628634  0.53966176  0.00141536     0.76380
C912        C  0.64460135  0.65203762  0.43261951     0.78780
Cd913      Cd  0.95932920  0.63136393  0.48909866     1.37460
O914        O  0.87852272  0.63393613  0.42122307    -0.56210
O915        O  0.94022826  0.64235211  0.40761253    -0.55020
C916        C  0.65958780  0.67073718  0.08675529     0.78740
O917        O  0.67453089  0.65623065  0.48557201    -0.57400
O918        O  0.91131286  0.69391754  0.43829626    -0.55850
O919        O  0.67569197  0.56844707  0.03246116    -0.55840
O920        O  0.96418503  0.64101867  0.06027259    -0.55010
O921        O  0.78846455  0.26688007  0.07972281    -0.56220
C922        C  0.68739586  0.36067014  0.99951025     0.76410
O923        O  0.99110894  0.22238424  0.42844533    -0.57380
C924        C  0.79127389  0.22584630  0.08835588     0.76380
C925        C  0.01992181  0.24905139  0.06502221     0.78780
Cd926      Cd  0.70768288  0.26903009  0.01153280     1.37460
O927        O  0.72658002  0.34767853  0.03283636    -0.56210
O928        O  0.72434292  0.26046097  0.09129813    -0.55020
C929        C  0.00815301  0.23028935  0.41408877     0.78740
O930        O  0.99157495  0.24219160  0.01278793    -0.57400
O931        O  0.99123916  0.33202941  0.46794654    -0.55850
O932        O  0.75613079  0.20672422  0.06323725    -0.55840
O933        O  0.70340825  0.26016716  0.44075934    -0.55010
C934        C  0.83283297  0.19894102  0.12325934    -0.00890
O935        O  0.77463037  0.05320760  0.47321821    -0.56220
C936        C  0.70678589  0.17535528  0.40649903     0.76410
O937        O  0.84113266  0.17819176  0.06768040    -0.57380
C938        C  0.81288471  0.04076182  0.00147865     0.76380
C939        C  0.81147205  0.14911698  0.43008297     0.78780
Cd940      Cd  0.79027219  0.13218564  0.48388903     1.37460
O941        O  0.70949250  0.13430415  0.41475362    -0.56210
O942        O  0.77760378  0.12834843  0.40679601    -0.55020
C943        C  0.82355050  0.17083777  0.08140150     0.78740
O944        O  0.83480487  0.16547641  0.47777263    -0.57400
O945        O  0.74190100  0.19444693  0.43157921    -0.55850
O946        O  0.84099077  0.07086127  0.02613481    -0.55840
O947        O  0.79454150  0.14139959  0.05430046    -0.55010
O948        O  0.89357174  0.84871488  0.02714537    -0.56220
C949        C  0.96136641  0.72625567  0.09437914     0.76410
O950        O  0.83550762  0.73580789  0.02620232    -0.57380
C951        C  0.85536430  0.86122979  0.99900507     0.76380
C952        C  0.84412705  0.73068372  0.41981126     0.78780
Cd953      Cd  0.87817638  0.76981017  0.01761085     1.37460
O954        O  0.95886535  0.76729153  0.08614976    -0.56210
O955        O  0.87342331  0.75982717  0.44691150    -0.55020
C956        C  0.85842858  0.75325153  0.07320717     0.78740
O957        O  0.82653249  0.72386712  0.43359784    -0.57400
O958        O  0.92619791  0.70741430  0.06944146    -0.55850
O959        O  0.82732680  0.83110726  0.47496393    -0.55840
O960        O  0.89127421  0.77535634  0.09513273    -0.55010
C961        C  0.66535270  0.20224356  0.37199240    -0.00890
O962        O  0.89281220  0.05318709  0.28446347    -0.56220
C963        C  0.95781917  0.17524825  0.33899598     0.76410
O964        O  0.82458395  0.17863795  0.17957316    -0.57380
C965        C  0.85324045  0.04092067  0.24862821     0.76380
C966        C  0.85541165  0.14879623  0.31977959     0.78780
Cd967      Cd  0.87533146  0.13197873  0.26477326     1.37460
O968        O  0.95576964  0.13420918  0.33226363    -0.56210
O969        O  0.89037181  0.13009990  0.34373857    -0.55020
C970        C  0.84262929  0.17124288  0.16661417     0.78740
O971        O  0.82982774  0.16327312  0.27000903    -0.57400
O972        O  0.92248496  0.19428164  0.31356734    -0.55850
O973        O  0.82421804  0.07054545  0.21676901    -0.55840
O974        O  0.87227011  0.14191385  0.19536039    -0.55010
O975        O  0.77356020  0.84735648  0.21410537    -0.56220
C976        C  0.71028822  0.72581066  0.16186175     0.76410
O977        O  0.84064899  0.73981735  0.23409941    -0.57270
C978        C  0.81285464  0.86040790  0.24965607     0.76380
C979        C  0.82509952  0.72978326  0.33466796     0.78780
Cd980      Cd  0.79284982  0.76896521  0.23658526     1.37460
O981        O  0.71250815  0.76681143  0.16884884    -0.56210
O982        O  0.79584379  0.75949575  0.30608484    -0.55020
C983        C  0.81439294  0.75228241  0.18343552     0.78740
O984        O  0.84304577  0.72192536  0.32166357    -0.57400
O985        O  0.74555748  0.70663866  0.18722611    -0.55850
O986        O  0.84250669  0.83153918  0.28285873    -0.55840
O987        O  0.77810028  0.76850246  0.15789752    -0.55010
C988        C  0.66930082  0.69907387  0.12886084    -0.00890
C989        C  0.84156848  0.99457843  0.24607871    -0.03740
C990        C  0.80615325  0.98508770  0.23546665    -0.00860
C991        C  0.79753950  0.94153032  0.23814585     0.04130
C992        C  0.82362069  0.90672106  0.25049068    -0.03740
C993        C  0.85856898  0.91613484  0.26018755    -0.00850
C994        C  0.86739919  0.95970825  0.25793039     0.04130
C995        C  0.77918586  0.02010184  0.22371682     0.38780
C996        C  0.88474445  0.88097794  0.27045146     0.38770
C997        C  0.90217352  0.96831032  0.26568131     0.37190
C998        C  0.76278730  0.93289609  0.23042504     0.37190
N999        N  0.92980422  0.97508109  0.27168094    -0.37630
N1000       N  0.73520350  0.92609928  0.22450651    -0.37630
N1001       N  0.90566605  0.85310942  0.27854002    -0.37070
N1002       N  0.75756238  0.04782434  0.21435097    -0.37080
C1003       C  0.84596751  0.75131551  0.09988188    -0.03740
C1004       C  0.85142893  0.71264877  0.12627720    -0.00860
C1005       C  0.84170719  0.71264095  0.15449449     0.04130
C1006       C  0.82592742  0.75120550  0.15551024    -0.03740
C1007       C  0.82036450  0.78978709  0.12872592    -0.00850
C1008       C  0.83047359  0.78981090  0.10123804     0.04130
C1009       C  0.86792207  0.67332382  0.12537538     0.38780
C1010       C  0.80538238  0.83013536  0.13066732     0.38770
C1011       C  0.82461248  0.82971139  0.07398803     0.37190
C1012       C  0.84688258  0.67284141  0.18117818     0.37190
N1013       N  0.81979635  0.86178976  0.05256157    -0.37630
N1014       N  0.85087069  0.64109339  0.20240122    -0.37630
N1015       N  0.79335905  0.86231823  0.13196115    -0.37070
N1016       N  0.88114680  0.64202592  0.12459343    -0.37080
C1017       C  0.84430925  0.15030572  0.34816192    -0.03740
C1018       C  0.83362156  0.19004618  0.35489833    -0.00860
C1019       C  0.82438543  0.19028276  0.38367794     0.04130
C1020       C  0.82438677  0.15065087  0.40391749    -0.03740
C1021       C  0.83487318  0.11102658  0.39688216    -0.00850
C1022       C  0.84533897  0.11088795  0.36982541     0.04130
C1023       C  0.83301190  0.23064072  0.33332996     0.38780
C1024       C  0.83531285  0.07007179  0.41793106     0.38770
C1025       C  0.85629727  0.06968009  0.36336510     0.37190
C1026       C  0.81404053  0.23098498  0.39151201     0.37190
N1027       N  0.86531838  0.03678023  0.35878909    -0.37630
N1028       N  0.80589682  0.26342282  0.39801968    -0.37630
N1029       N  0.83567777  0.03710917  0.43421736    -0.37070
N1030       N  0.83245488  0.26305539  0.31604613    -0.37080
C1031       C  0.82382902  0.99407600  0.00278300    -0.03740
C1032       C  0.86811552  0.98063526  0.04056364    -0.00860
C1033       C  0.87821921  0.93844370  0.03737081     0.04130
C1034       C  0.84441446  0.90804682  0.99721326    -0.03740
C1035       C  0.80012165  0.92158359  0.45914600    -0.00850
C1036       C  0.79000127  0.96376535  0.46234113     0.04130
C1037       C  0.90419226  0.00972368  0.08393940     0.38780
C1038       C  0.76408943  0.89261100  0.41541562     0.38770
C1039       C  0.74413971  0.97554393  0.42280231     0.37190
C1040       C  0.92404470  0.92678866  0.07650074     0.37190
N1041       N  0.70752605  0.98458080  0.39126429    -0.37630
N1042       N  0.96061947  0.91785186  0.10765665    -0.37630
N1043       N  0.73508569  0.86984067  0.38046427    -0.37070
N1044       N  0.93325483  0.03256395  0.11860833    -0.37080
C1045       C  0.65730131  0.49370733  0.00210188    -0.03740
C1046       C  0.68915961  0.48549070  0.00583925    -0.00860
C1047       C  0.69881826  0.44223293  0.00464603     0.04130
C1048       C  0.67650175  0.40658365  0.99910495    -0.03740
C1049       C  0.97800021  0.41478357  0.99540952    -0.00850
C1050       C  0.96847024  0.45803946  0.49683073     0.04130
C1051       C  0.71090493  0.52160417  0.00846691     0.38780
C1052       C  0.95612152  0.37865829  0.49251287     0.38770
C1053       C  0.93680190  0.46556861  0.49478881     0.37190
C1054       C  0.73081811  0.43467919  0.00726472     0.37190
N1055       N  0.91158332  0.47148833  0.49322862    -0.37630
N1056       N  0.75634387  0.42872818  0.00936386    -0.37630
N1057       N  0.93866143  0.34996380  0.49029695    -0.37070
N1058       N  0.72824086  0.55029972  0.01045968    -0.37080
C1059       C  0.65288620  0.65537205  0.40079579    -0.03740
C1060       C  0.68239093  0.68634022  0.41458586    -0.00860
C1061       C  0.69041976  0.68754811  0.38444567     0.04130
C1062       C  0.00256836  0.65782164  0.34069713    -0.03740
C1063       C  0.97235971  0.62777369  0.32603527    -0.00850
C1064       C  0.96465046  0.62603327  0.35629005     0.04130
C1065       C  0.70442798  0.71706540  0.45945668     0.38780
C1066       C  0.95091593  0.59655330  0.28187219     0.38770
C1067       C  0.93684436  0.59157364  0.34391480     0.37190
C1068       C  0.71972299  0.72000105  0.39744154     0.37190
N1069       N  0.91492264  0.56398766  0.33426988    -0.37630
N1070       N  0.74266800  0.74610131  0.40712724    -0.37630
N1071       N  0.93331754  0.57130492  0.24683712    -0.37070
N1072       N  0.72221357  0.74159096  0.49532400    -0.37080
C1073       C  0.99190207  0.24752532  0.15279174    -0.03740
C1074       C  0.97693845  0.21288538  0.11660576    -0.00860
C1075       C  0.98548142  0.21303438  0.08702876     0.04130
C1076       C  0.00948658  0.24769104  0.09430009    -0.03740
C1077       C  0.69025516  0.28272042  0.12983269    -0.00850
C1078       C  0.68143828  0.28255238  0.15879350     0.04130
C1079       C  0.95267741  0.17731012  0.10981272     0.38780
C1080       C  0.71152899  0.32058563  0.13406493     0.38770
C1081       C  0.69382766  0.31993662  0.19231198     0.37190
C1082       C  0.96975117  0.17755766  0.04954076     0.37190
N1083       N  0.70349931  0.35038451  0.21811199    -0.37630
N1084       N  0.95691880  0.14925685  0.01945625    -0.37630
N1085       N  0.72826896  0.35078278  0.13719457    -0.37070
N1086       N  0.93343065  0.14894241  0.10465198    -0.37080
C1087       C  0.01193749  0.49414105  0.25022078    -0.03740
C1088       C  0.96819672  0.48284880  0.21694701    -0.00860
C1089       C  0.95828364  0.44043675  0.22045179     0.04130
C1090       C  0.99093272  0.40719106  0.25329207    -0.03740
C1091       C  0.70126879  0.41829065  0.28584107    -0.00850
C1092       C  0.71136773  0.46107057  0.28337006     0.04130
C1093       C  0.93241419  0.51410516  0.17749765     0.38780
C1094       C  0.73652361  0.38607207  0.32209138     0.38770
C1095       C  0.75523437  0.47006024  0.31252717     0.37190
C1096       C  0.91453140  0.43200764  0.19191639     0.37190
N1097       N  0.79006458  0.47698099  0.33530428    -0.37630
N1098       N  0.87978868  0.42558499  0.16961820    -0.37630
N1099       N  0.76501366  0.36081017  0.35109690    -0.37070
N1100       N  0.90329790  0.53826844  0.14509159    -0.37080
C1101       C  0.83459689  0.70228248  0.87794660    -0.00890
O1102       O  0.93920741  0.34737422  0.70756252    -0.56220
C1103       C  0.87383786  0.22587690  0.65654950     0.76410
O1104       O  0.67317765  0.24236358  0.73137505    -0.57380
C1105       C  0.97843558  0.36049481  0.74866505     0.76380
C1106       C  0.65528399  0.22972355  0.82835514     0.78780
Cd1107     Cd  0.95652364  0.26909583  0.73071866     1.37470
O1108       O  0.87581568  0.26703687  0.66264189    -0.56210
O1109       O  0.95888461  0.25896026  0.79948292    -0.55020
C1110       C  0.97952303  0.25053804  0.67944287     0.78740
O1111       O  0.67317970  0.22210032  0.81523118    -0.57400
O1112       O  0.90932589  0.20669036  0.68273216    -0.55850
O1113       O  0.67326111  0.33118646  0.78384196    -0.55840
O1114       O  0.94200240  0.26469463  0.65161314    -0.55010
O1115       O  0.72915671  0.55502249  0.79752807    -0.56220
C1116       C  0.79336955  0.67569138  0.84456932     0.76410
O1117       O  0.99446472  0.67992843  0.68536689    -0.57380
C1118       C  0.69073229  0.54088155  0.75456485     0.76380
C1119       C  0.01627978  0.65353646  0.81561183     0.78780
Cd1120     Cd  0.71030208  0.63289828  0.76973530     1.37460
O1121       O  0.79122937  0.63444660  0.83894159    -0.56210
O1122       O  0.72232403  0.64444534  0.84625117    -0.55020
C1123       C  0.01247848  0.67191292  0.67249682     0.78740
O1124       O  0.98924530  0.65582064  0.76297438    -0.57400
O1125       O  0.75786875  0.69521426  0.81780565    -0.55850
O1126       O  0.99613405  0.56924077  0.71698479    -0.55840
O1127       O  0.70871354  0.64252468  0.70155080    -0.55010
O1128       O  0.94043737  0.55256241  0.96831472    -0.56220
C1129       C  0.87599707  0.67502051  0.91290644     0.76410
O1130       O  0.67648539  0.67825135  0.57212999    -0.57380
C1131       C  0.64629295  0.53966253  0.50141651     0.76380
C1132       C  0.64458181  0.65203727  0.93260365     0.78780
Cd1133     Cd  0.95931838  0.63136267  0.98909208     1.37460
O1134       O  0.87851266  0.63393700  0.92122088    -0.56210
O1135       O  0.94021261  0.64233702  0.90760073    -0.55020
C1136       C  0.65959259  0.67073638  0.58675930     0.78740
O1137       O  0.67450995  0.65624246  0.98555428    -0.57400
O1138       O  0.91130418  0.69391649  0.93829195    -0.55850
O1139       O  0.67570008  0.56844574  0.53246778    -0.55840
O1140       O  0.96419180  0.64101593  0.56027656    -0.55010
O1141       O  0.78846511  0.26687769  0.57972230    -0.56220
C1142       C  0.68739879  0.36066976  0.49950983     0.76410
O1143       O  0.99110839  0.22238470  0.92844497    -0.57380
C1144       C  0.79127409  0.22584396  0.58835529     0.76380
C1145       C  0.01992271  0.24905262  0.56502281     0.78780
Cd1146     Cd  0.70768410  0.26902920  0.51153334     1.37460
O1147       O  0.72658291  0.34767714  0.53283759    -0.56210
O1148       O  0.72434365  0.26046268  0.59129855    -0.55020
C1149       C  0.00815189  0.23029075  0.91408779     0.78740
O1150       O  0.99157611  0.24219189  0.51278878    -0.57400
O1151       O  0.99123678  0.33202915  0.96794803    -0.55850
O1152       O  0.75613091  0.20672232  0.56323698    -0.55840
O1153       O  0.70340638  0.26016928  0.94075782    -0.55010
C1154       C  0.83283304  0.19893845  0.62325868    -0.00890
O1155       O  0.77463548  0.05321191  0.97322585    -0.56220
C1156       C  0.70678589  0.17535757  0.90649895     0.76410
O1157       O  0.84113290  0.17818713  0.56768034    -0.57380
C1158       C  0.81288013  0.04075594  0.50147452     0.76380
C1159       C  0.81147118  0.14912044  0.93008158     0.78780
Cd1160     Cd  0.79027317  0.13219001  0.98388987     1.37460
O1161       O  0.70949323  0.13430635  0.91475355    -0.56210
O1162       O  0.77760425  0.12835017  0.90679672    -0.55020
C1163       C  0.82355030  0.17083445  0.58140103     0.78740
O1164       O  0.83480317  0.16548232  0.97776986    -0.57400
O1165       O  0.74190071  0.19445017  0.93157948    -0.55850
O1166       O  0.84098757  0.07085440  0.52613468    -0.55840
O1167       O  0.79454070  0.14139685  0.55429975    -0.55010
O1168       O  0.89356583  0.84870951  0.52713781    -0.56220
C1169       C  0.96136659  0.72625371  0.59437742     0.76410
O1170       O  0.83551959  0.73579400  0.52621800    -0.57380
C1171       C  0.85535882  0.86122269  0.49900086     0.76380
C1172       C  0.84412179  0.73068759  0.91980948     0.78780
Cd1173     Cd  0.87817637  0.76980474  0.51761052     1.37460
O1174       O  0.95886535  0.76729011  0.58615067    -0.56210
O1175       O  0.87341881  0.75983020  0.94690828    -0.55020
C1176       C  0.85843699  0.75324576  0.57321757     0.78740
O1177       O  0.82652926  0.72387242  0.93359893    -0.57400
O1178       O  0.92619802  0.70741066  0.56943698    -0.55850
O1179       O  0.82733087  0.83111559  0.97496504    -0.55840
O1180       O  0.89127626  0.77535816  0.59513410    -0.55010
C1181       C  0.66535212  0.20224495  0.87199178    -0.00890
O1182       O  0.89281179  0.05318638  0.78446399    -0.56220
C1183       C  0.95781905  0.17524886  0.83899575     0.76410
O1184       O  0.82458407  0.17863632  0.67957269    -0.57380
C1185       C  0.85323990  0.04092027  0.74862841     0.76380
C1186       C  0.85541128  0.14879699  0.81977875     0.78780
Cd1187     Cd  0.87533176  0.13197820  0.76477351     1.37460
O1188       O  0.95577022  0.13420968  0.83226435    -0.56210
O1189       O  0.89037131  0.13009999  0.84373811    -0.55020
C1190       C  0.84262960  0.17124097  0.66661402     0.78740
O1191       O  0.82982785  0.16327387  0.77000832    -0.57400
O1192       O  0.92248448  0.19428171  0.81356656    -0.55850
O1193       O  0.82421780  0.07054529  0.71676914    -0.55840
O1194       O  0.87227073  0.14191223  0.69536088    -0.55010
O1195       O  0.77355853  0.84735571  0.71410211    -0.56220
C1196       C  0.71028925  0.72581012  0.66186444     0.76410
O1197       O  0.84065402  0.73981655  0.73410852    -0.57270
C1198       C  0.81285296  0.86040797  0.74965575     0.76380
C1199       C  0.82509361  0.72978440  0.83466609     0.78780
Cd1200     Cd  0.79284989  0.76896491  0.73658693     1.37460
O1201       O  0.71250769  0.76681160  0.66884672    -0.56210
O1202       O  0.79583840  0.75949742  0.80608168    -0.55020
C1203       C  0.81439868  0.75227828  0.68344373     0.78740
O1204       O  0.84304208  0.72192579  0.82166489    -0.57400
O1205       O  0.74555949  0.70663777  0.68723285    -0.55850
O1206       O  0.84250531  0.83154012  0.78286174    -0.55840
O1207       O  0.77810426  0.76849631  0.65790199    -0.55010
C1208       C  0.66930190  0.69907309  0.62886208    -0.00890
C1209       C  0.84156743  0.99457813  0.74607847    -0.03740
C1210       C  0.80615121  0.98508767  0.73546456    -0.00860
C1211       C  0.79753690  0.94153035  0.73814316     0.04130
C1212       C  0.82361892  0.90672103  0.75049003    -0.03740
C1213       C  0.85856816  0.91613450  0.76018878    -0.00850
C1214       C  0.86739856  0.95970774  0.75793144     0.04130
C1215       C  0.77918336  0.02010197  0.72371344     0.38780
C1216       C  0.88474443  0.88097735  0.77045476     0.38770
C1217       C  0.90217353  0.96830935  0.76568349     0.37190
C1218       C  0.76278324  0.93289622  0.73041961     0.37190
N1219       N  0.92980473  0.97507970  0.77168397    -0.37630
N1220       N  0.73519824  0.92609952  0.72449883    -0.37630
N1221       N  0.90566657  0.85310855  0.77854489    -0.37070
N1222       N  0.75755954  0.04782461  0.71434663    -0.37080
C1223       C  0.84597801  0.75131055  0.59989517    -0.03740
C1224       C  0.85143687  0.71264341  0.62628809    -0.00860
C1225       C  0.84171526  0.71263613  0.65450565     0.04130
C1226       C  0.82593598  0.75120105  0.65552167    -0.03740
C1227       C  0.82037521  0.78978283  0.62873937    -0.00850
C1228       C  0.83048605  0.78980666  0.60125350     0.04130
C1229       C  0.86792706  0.67331737  0.62538331     0.38780
C1230       C  0.80539184  0.83013096  0.63067906     0.38770
C1231       C  0.82462685  0.82970761  0.57400562     0.37190
C1232       C  0.84689052  0.67283682  0.68118955     0.37190
N1233       N  0.81981224  0.86178643  0.55258099    -0.37630
N1234       N  0.85087911  0.64108888  0.70241313    -0.37630
N1235       N  0.79336713  0.86231363  0.63197101    -0.37070
N1236       N  0.88114924  0.64201848  0.62459881    -0.37080
C1237       C  0.84430839  0.15030716  0.84816047    -0.03740
C1238       C  0.83362122  0.19004801  0.85489697    -0.00860
C1239       C  0.82438485  0.19028524  0.88367629     0.04130
C1240       C  0.82438547  0.15065359  0.90391553    -0.03740
C1241       C  0.83487120  0.11102888  0.89687984    -0.00850
C1242       C  0.84533716  0.11088963  0.86982330     0.04130
C1243       C  0.83301234  0.23064227  0.83332897     0.38780
C1244       C  0.83531020  0.07007426  0.91792828     0.38770
C1245       C  0.85629470  0.06968135  0.86336259     0.37190
C1246       C  0.81404023  0.23098787  0.89151013     0.37190
N1247       N  0.86531519  0.03678116  0.85878624    -0.37630
N1248       N  0.80589669  0.26342610  0.89801744    -0.37630
N1249       N  0.83567461  0.03711161  0.93421404    -0.37070
N1250       N  0.83245594  0.26305671  0.81604542    -0.37080
C1251       C  0.82382392  0.99406956  0.50277912    -0.03740
C1252       C  0.86811025  0.98062853  0.54055895    -0.00860
C1253       C  0.87821353  0.93843655  0.53736648     0.04130
C1254       C  0.84440864  0.90803941  0.49720986    -0.03740
C1255       C  0.80012726  0.92159145  0.95914720    -0.00850
C1256       C  0.79000652  0.96377257  0.96234289     0.04130
C1257       C  0.90418743  0.00971710  0.58393356     0.38780
C1258       C  0.76409516  0.89262024  0.91541342     0.38770
C1259       C  0.74414472  0.97555155  0.92280195     0.37190
C1260       C  0.92403901  0.92678107  0.57649677     0.37190
N1261       N  0.70753088  0.98458873  0.89126226    -0.37630
N1262       N  0.96061376  0.91784380  0.60765312    -0.37630
N1263       N  0.73509150  0.86985107  0.88045924    -0.37070
N1264       N  0.93325038  0.03255740  0.61860159    -0.37080
C1265       C  0.65730650  0.49370794  0.50210163    -0.03740
C1266       C  0.68916617  0.48549026  0.50584171    -0.00860
C1267       C  0.69882385  0.44223215  0.50464788     0.04130
C1268       C  0.67650527  0.40658370  0.49910408    -0.03740
C1269       C  0.97800234  0.41478481  0.49540594    -0.00850
C1270       C  0.96846747  0.45803790  0.99683437     0.04130
C1271       C  0.71091401  0.52160304  0.50847299     0.38780
C1272       C  0.95612133  0.37865618  0.99251881     0.38770
C1273       C  0.93680096  0.46556567  0.99479587     0.37190
C1274       C  0.73082493  0.43467723  0.50726893     0.37190
N1275       N  0.91158386  0.47148413  0.99323848    -0.37630
N1276       N  0.75635162  0.42872527  0.50936988    -0.37630
N1277       N  0.93866275  0.34996097  0.99030466    -0.37070
N1278       N  0.72825197  0.55029800  0.51046863    -0.37080
C1279       C  0.65286539  0.65537417  0.90077889    -0.03740
C1280       C  0.68235351  0.68635758  0.91455198    -0.00860
C1281       C  0.69038551  0.68756536  0.88441530     0.04130
C1282       C  0.00254958  0.65782696  0.84068279    -0.03740
C1283       C  0.97235614  0.62776419  0.82603665    -0.00850
C1284       C  0.96464688  0.62602179  0.85629131     0.04130
C1285       C  0.70436993  0.71709853  0.95940161     0.38780
C1286       C  0.95093074  0.59653001  0.78189285     0.38770
C1287       C  0.93686064  0.59154699  0.84393709     0.37190
C1288       C  0.71967939  0.72002705  0.89740235     0.37190
N1289       N  0.91495526  0.56394881  0.83430952    -0.37630
N1290       N  0.74261888  0.74613322  0.90708410    -0.37630
N1291       N  0.93334767  0.57126969  0.74687418    -0.37070
N1292       N  0.72213858  0.74163713  0.99525154    -0.37080
C1293       C  0.99190342  0.24752561  0.65279291    -0.03740
C1294       C  0.97693974  0.21288588  0.61660665    -0.00860
C1295       C  0.98548263  0.21303520  0.58702957     0.04130
C1296       C  0.00948744  0.24769217  0.59430066    -0.03740
C1297       C  0.69025584  0.28272147  0.62983326    -0.00850
C1298       C  0.68143947  0.28255288  0.65879467     0.04130
C1299       C  0.95267915  0.17731019  0.60981391     0.38780
C1300       C  0.71152883  0.32058717  0.63406473     0.38770
C1301       C  0.69382905  0.31993683  0.69231366     0.37190
C1302       C  0.96975271  0.17755843  0.54954178     0.37190
N1303       N  0.70350088  0.35038433  0.71811428    -0.37630
N1304       N  0.95692064  0.14925756  0.51945747    -0.37630
N1305       N  0.72826807  0.35078473  0.63719368    -0.37070
N1306       N  0.93343282  0.14894209  0.60465345    -0.37080
C1307       C  0.01192815  0.49414566  0.75021631    -0.03740
C1308       C  0.96818686  0.48285104  0.71693831    -0.00860
C1309       C  0.95827430  0.44043793  0.72044160     0.04130
C1310       C  0.99092473  0.40719352  0.75328436    -0.03740
C1311       C  0.70126111  0.41829521  0.78583620    -0.00850
C1312       C  0.71135952  0.46107627  0.78336728     0.04130
C1313       C  0.93240351  0.51410624  0.67748695     0.38780
C1314       C  0.73651686  0.38607762  0.82208730     0.38770
C1315       C  0.75522709  0.47006844  0.81252855     0.37190
C1316       C  0.91452107  0.43200638  0.69190210     0.37190
N1317       N  0.79005808  0.47699136  0.83530904    -0.37630
N1318       N  0.87977755  0.42558176  0.66960067    -0.37630
N1319       N  0.76500764  0.36081653  0.85109346    -0.37070
N1320       N  0.90328665  0.53826885  0.64508038    -0.37080
loop_ 
_geom_bond_atom_site_label_1 
_geom_bond_atom_site_label_2 
_geom_bond_distance 
_geom_bond_site_symmetry_2 
_ccdc_geom_bond_type 
C1           C16   1.520       .  S
C1           C29   1.521       .  S
C1           C72   1.517       .  S
C1           C99   1.519       .  S
O2            C5   1.268       .  A
O2           Cd7   2.454       .  S
C3           C54   1.520       .  S
C3           O12   1.267       .  A
C3            O8   1.272       .  A
O4          C890   1.268   1_455  A
O4         Cd887   2.475   1_455  S
C5          O453   1.264       .  A
C5          C210   1.502       .  S
C6           C81   1.517       .  S
C6           O11   1.271   1_655  A
C6          O889   1.267       .  A
Cd7          O14   2.428       .  S
Cd7          O12   2.400       .  S
Cd7           O8   2.491       .  S
Cd7           O9   2.453       .  S
Cd7         O444   2.475       .  S
Cd7         O453   2.452       .  S
Cd7         O451   2.451       .  S
O9          C446   1.267       .  A
C10          O14   1.262       .  A
C10         O444   1.268       .  A
C10         C193   1.474       .  S
O11        Cd887   2.451   1_455  S
O13         C885   1.264   1_455  A
O13        Cd887   2.452   1_455  S
O15          C18   1.268       .  A
O15         Cd20   2.463       .  S
C16          O25   1.267       .  A
C16          O21   1.272       .  A
O17          C23   1.271       .  A
O17        Cd460   2.449       .  S
C18         O906   1.264   1_455  A
C18        C1087   1.500       .  S
C19          O24   1.268       .  A
C19         O462   1.263       .  A
C19         C182   1.479       .  S
Cd20         O27   2.457       .  S
Cd20         O25   2.404       .  S
Cd20         O21   2.492       .  S
Cd20         O22   2.436       .  S
Cd20        O897   2.449   1_455  S
Cd20        O906   2.449   1_455  S
Cd20        O904   2.478   1_455  S
O22         C899   1.263       .  A
C23         C548   1.516       .  S
C23         O467   1.267       .  A
O24        Cd460   2.478       .  S
O26         C458   1.264       .  A
O26        Cd460   2.449       .  S
O27         C903   1.267       .  A
O28         C691   1.269       .  A
O28         Cd33   2.484       .  S
C29          O38   1.267       .  A
C29          O34   1.273       .  A
O30          C36   1.270   1_455  A
O30       Cd1133   2.459   1_454  S
C31          O39   1.265   1_655  A
C31        O1128   1.269   1_554  A
C31         C165   1.494       .  S
C32          O37   1.270   1_655  A
C32         O915   1.263       .  A
C32         C179   1.487       .  S
Cd33         O38   2.401       .  S
Cd33         O34   2.495       .  S
Cd33         O35   2.395       .  S
Cd33        O690   2.459       .  S
Cd33        O260   2.463       .  S
Cd33        O699   2.448       .  S
Cd33        O477   2.494       .  S
O35         C472   1.263       .  A
C36         C108   1.519   1_655  S
C36         O920   1.267       .  A
O37        Cd913   2.494   1_455  S
O39       Cd1133   2.448   1_454  S
O40         C476   1.267       .  A
O40        Cd253   2.463   1_554  S
O41          C44   1.272       .  A
O41         Cd46   2.492       .  S
C42          O47   1.269   1_556  A
C42        O1151   1.265   1_455  A
C42         C168   1.493       .  S
O43          C49   1.270       .  A
O43        Cd706   2.455       .  S
C44          C54   1.520       .  S
C44          O52   1.267       .  A
C45          O50   1.269       .  A
C45         O488   1.264       .  A
C45         C196   1.482       .  S
Cd46         O52   2.404       .  S
Cd46         O47   2.481       .  S
Cd46         O48   2.394       .  S
Cd46       O1143   2.455   1_454  S
Cd46        O273   2.465   1_554  S
Cd46       O1151   2.451   1_454  S
Cd46        O930   2.492   1_455  S
O48         C925   1.264       .  A
C49         C521   1.519       .  S
C49         O493   1.267       .  A
O50        Cd486   2.492       .  S
O51         C702   1.265       .  A
O51        Cd706   2.451       .  S
O53         C929   1.267       .  A
O53        Cd266   2.465       .  S
C54          C63   1.517       .  S
C54          C90   1.518       .  S
O55         C278   1.269       .  A
O55         Cd60   2.468       .  S
C56          C81   1.518   1_455  S
C56          O65   1.266       .  A
C56          O61   1.271       .  A
O57          C63   1.270       .  A
O57        Cd280   2.458   1_554  S
C58          O66   1.265       .  A
C58         O275   1.269   1_554  A
C58         C151   1.508   1_545  S
C59          O64   1.269       .  A
C59          O62   1.264       .  A
C59         C140   1.475       .  S
Cd60         O65   2.403       .  S
Cd60         O61   2.487       .  S
Cd60         O64   2.479       .  S
Cd60         O62   2.410       .  S
Cd60        O277   2.458       .  S
Cd60        O287   2.454       .  S
Cd60        O286   2.438       .  S
C63          O67   1.267       .  A
O66        Cd280   2.438   1_554  S
O67        Cd280   2.454   1_554  S
O68          C71   1.269   1_554  A
O68         Cd73   2.466       .  S
C69         C548   1.518       .  S
C69          O78   1.265       .  A
C69          O74   1.271       .  A
O70          C76   1.269       .  A
O70         Cd73   2.474       .  S
C71         O299   1.265       .  A
C71         C154   1.508       .  S
C72          O77   1.270       .  A
C72          O75   1.267       .  A
Cd73         O80   2.416       .  S
Cd73         O78   2.399       .  S
Cd73         O74   2.487       .  S
Cd73        O299   2.438   1_554  S
Cd73        O297   2.461   1_554  S
Cd73        O295   2.451   1_554  S
O75        Cd293   2.451       .  S
C76          O80   1.264       .  A
C76         C123   1.474       .  S
O77        Cd293   2.461       .  S
O79         C291   1.265       .  A
O79        Cd293   2.438       .  S
C81         C929   1.519   1_655  S
C81         C963   1.518       .  S
O82          C85   1.269       .  A
O82         Cd87   2.463       .  S
C83         C521   1.518       .  S
C83          O92   1.266       .  A
C83          O88   1.271       .  A
O84          C90   1.271       .  A
O84         Cd87   2.458       .  S
C85          O93   1.266       .  A
C85         C109   1.494   1_545  S
C86          O91   1.270       .  A
C86          O89   1.264       .  A
C86         C137   1.479       .  S
Cd87         O94   2.452       .  S
Cd87         O93   2.449       .  S
Cd87         O92   2.398       .  S
Cd87         O88   2.485       .  S
Cd87         O91   2.487       .  S
Cd87         O89   2.402       .  S
C90          O94   1.267       .  A
O95          C98   1.268       .  A
O95        Cd100   2.465       .  S
C96         C108   1.517       .  S
C96         O105   1.267       .  A
C96         O101   1.271       .  A
O97         C103   1.270       .  A
O97        Cd100   2.488       .  S
C98         O106   1.266       .  A
C98         C112   1.493       .  S
C99         O104   1.271       .  A
C99         O102   1.267       .  A
Cd100       O107   2.401       .  S
Cd100       O106   2.449       .  S
Cd100       O105   2.402       .  S
Cd100       O101   2.480       .  S
Cd100       O104   2.462       .  S
Cd100       O102   2.456       .  S
C103        O107   1.263       .  A
C103        C126   1.480       .  S
C108        C903   1.516       .  S
C108        C949   1.518   1_455  S
C109        C110   1.420       .  A
C109        C114   1.414       .  A
C110        C111   1.413       .  A
C110        C115   1.453   1_565  S
C111        C112   1.413       .  A
C111        C118   1.452       .  S
C112        C113   1.419       .  A
C113        C114   1.412       .  A
C113        C116   1.453       .  S
C114        C117   1.452       .  S
C115        N122   1.158       .  T
C116        N121   1.158       .  T
C117        N119   1.157       .  T
C118        N120   1.157       .  T
C123        C124   1.411       .  A
C123        C128   1.409       .  A
C124        C125   1.414       .  A
C124        C129   1.449       .  S
C125        C126   1.413       .  A
C125        C132   1.449       .  S
C126        C127   1.414       .  A
C127        C128   1.404       .  A
C127        C130   1.454       .  S
C128        C131   1.452       .  S
C129        N136   1.157       .  T
C130        N135   1.157       .  T
C131        N133   1.157       .  T
C132        N134   1.157       .  T
C137        C138   1.413       .  A
C137        C142   1.413       .  A
C138        C139   1.414       .  A
C138        C143   1.450       .  S
C139        C140   1.411       .  A
C139        C146   1.449       .  S
C140        C141   1.410       .  A
C141        C142   1.403       .  A
C141        C144   1.452       .  S
C142        C145   1.454       .  S
C143        N150   1.157       .  T
C144        N149   1.157       .  T
C145        N147   1.157       .  T
C146        N148   1.157       .  T
C151        C152   1.422       .  A
C151        C376   1.420   1_554  A
C152        C153   1.415       .  A
C152        C157   1.454   1_565  S
C153        C154   1.420   1_554  A
C153        C160   1.453       .  S
C154        C375   1.422       .  A
C155        C156   1.415       .  A
C155        C374   1.422       .  A
C155        C158   1.454       .  S
C156        C371   1.420       .  A
C156        C159   1.453       .  S
C157        N164   1.158       .  T
C158        N163   1.158       .  T
C159        N161   1.158       .  T
C160        N162   1.158       .  T
C165        C166   1.419   1_655  A
C165       C1270   1.413   1_554  A
C166        C167   1.413       .  A
C166        C171   1.453       .  S
C167        C168   1.413   1_554  A
C167        C174   1.452       .  S
C168       C1049   1.419   1_455  A
C169        C608   1.419       .  A
C169        C390   1.414       .  A
C169        C392   1.453       .  S
C170        C825   1.413       .  A
C170        C389   1.414       .  A
C170        C173   1.452       .  S
C171        N178   1.158       .  T
C172        C389   1.453       .  S
C172        N177   1.158       .  T
C173        N175   1.158       .  T
C174        N176   1.158       .  T
C179        C180   1.415   1_655  A
C179       C1064   1.418       .  A
C180        C181   1.414       .  A
C180        C185   1.450       .  S
C181       C1062   1.412       .  A
C181        C188   1.451       .  S
C182        C183   1.408       .  A
C182        C621   1.412       .  A
C183        C184   1.405       .  A
C183        C186   1.449       .  S
C184        C619   1.418       .  A
C184        C187   1.455       .  S
C185        N192   1.157       .  T
C186        N191   1.156       .  T
C187        N189   1.158       .  T
C188        N190   1.157       .  T
C193        C194   1.411       .  A
C193        C638   1.408       .  A
C194        C195   1.414       .  A
C194        C199   1.450       .  S
C195        C196   1.414       .  A
C195        C202   1.450       .  S
C196        C637   1.416       .  A
C197        C198   1.403       .  A
C197       C1076   1.416       .  A
C197        C200   1.455       .  S
C198       C1073   1.408   1_455  A
C198        C201   1.450       .  S
C199        N206   1.157       .  T
C200        N205   1.158       .  T
C201        N203   1.156       .  T
C202        N204   1.157       .  T
C207        C458   1.500       .  S
C207        C208   1.420       .  A
C207        C652   1.415       .  A
C208        C209   1.411       .  A
C208        C213   1.452       .  S
C209        C210   1.416       .  A
C209        C216   1.454       .  S
C210        C651   1.423       .  A
C211        C212   1.413       .  A
C211       C1090   1.423   1_455  A
C211        C214   1.452       .  S
C212       C1087   1.415       .  A
C212        C215   1.454       .  S
C213        N220   1.158       .  T
C214        N219   1.158       .  T
C215        N217   1.158       .  T
C216        N218   1.158       .  T
C221        C236   1.520       .  S
C221        C249   1.521       .  S
C221        C292   1.517       .  S
C221        C319   1.519       .  S
O222        C225   1.268       .  A
O222       Cd227   2.454       .  S
C223        C274   1.520       .  S
C223        O232   1.267       .  A
C223        O228   1.272       .  A
O224       C1110   1.268   1_455  A
O224      Cd1107   2.475   1_455  S
C225        O673   1.264       .  A
C225        C430   1.502       .  S
C226        C301   1.517       .  S
C226        O231   1.271   1_655  A
C226       O1109   1.267       .  A
Cd227       O664   2.475       .  S
Cd227       O234   2.428       .  S
Cd227       O673   2.452       .  S
Cd227       O232   2.400       .  S
Cd227       O228   2.491       .  S
Cd227       O671   2.451       .  S
Cd227       O229   2.453       .  S
O229        C666   1.267       .  A
C230        O664   1.268       .  A
C230        O234   1.262       .  A
C230        C413   1.474       .  S
O231      Cd1107   2.451   1_455  S
O233       C1105   1.264   1_455  A
O233      Cd1107   2.452   1_455  S
O235        C238   1.268       .  A
O235       Cd240   2.463       .  S
C236        O245   1.267       .  A
C236        O241   1.272       .  A
O237        C243   1.271       .  A
O237       Cd680   2.449       .  S
C238       O1126   1.264   1_455  A
C238       C1307   1.500       .  S
C239        O244   1.268       .  A
C239        O682   1.263       .  A
C239        C402   1.479       .  S
Cd240      O1117   2.449   1_455  S
Cd240       O247   2.457       .  S
Cd240      O1126   2.449   1_455  S
Cd240       O245   2.404       .  S
Cd240       O241   2.492       .  S
Cd240      O1124   2.478   1_455  S
Cd240       O242   2.436       .  S
O242       C1119   1.263       .  A
C243        C768   1.516       .  S
C243        O687   1.267       .  A
O244       Cd680   2.478       .  S
O246        C678   1.264       .  A
O246       Cd680   2.449       .  S
O247       C1123   1.267       .  A
O248        C471   1.269   1_556  A
O248       Cd253   2.484       .  S
C249        O258   1.267       .  A
C249        O254   1.273       .  A
O250        C256   1.270   1_455  A
O250       Cd913   2.459   1_455  S
C251        O908   1.269       .  A
C251        O259   1.265   1_655  A
C251        C385   1.494       .  S
C252        O257   1.270   1_655  A
C252       O1135   1.263       .  A
C252        C399   1.487       .  S
Cd253       O470   2.459   1_556  S
Cd253       O479   2.448   1_556  S
Cd253       O258   2.401       .  S
Cd253       O254   2.495       .  S
Cd253       O697   2.494       .  S
Cd253       O255   2.395       .  S
O255        C692   1.263       .  A
C256        C328   1.519   1_655  S
C256       O1140   1.267       .  A
O257      Cd1133   2.494   1_455  S
O259       Cd913   2.448   1_455  S
O260        C696   1.267       .  A
O261        C264   1.272       .  A
O261       Cd266   2.492       .  S
C262        O931   1.265   1_455  A
C262        O267   1.269       .  A
C262        C388   1.493       .  S
O263        C269   1.270       .  A
O263       Cd486   2.455   1_556  S
C264        C274   1.520       .  S
C264        O272   1.267       .  A
C265        O270   1.269       .  A
C265        O708   1.264       .  A
C265        C416   1.482       .  S
Cd266       O923   2.455   1_455  S
Cd266       O272   2.404       .  S
Cd266       O931   2.451   1_455  S
Cd266       O267   2.481       .  S
Cd266      O1150   2.492   1_455  S
Cd266       O268   2.394       .  S
O268       C1145   1.264       .  A
C269        C741   1.519       .  S
C269        O713   1.267       .  A
O270       Cd706   2.492       .  S
O271        C482   1.265       .  A
O271       Cd486   2.451   1_556  S
O273       C1149   1.267       .  A
C274        C283   1.517       .  S
C274        C310   1.518       .  S
O275       Cd280   2.468       .  S
C276        C301   1.518   1_455  S
C276        O285   1.266       .  A
C276        O281   1.271       .  A
O277        C283   1.270       .  A
C278        O286   1.265       .  A
C278        C371   1.508   1_545  S
C279        O284   1.269       .  A
C279        O282   1.264       .  A
C279        C360   1.475       .  S
Cd280       O285   2.403       .  S
Cd280       O281   2.487       .  S
Cd280       O284   2.479       .  S
Cd280       O282   2.410       .  S
C283        O287   1.267       .  A
O288        C291   1.269       .  A
O288       Cd293   2.466       .  S
C289        C768   1.518       .  S
C289        O298   1.265       .  A
C289        O294   1.271       .  A
O290        C296   1.269       .  A
O290       Cd293   2.474       .  S
C291        C374   1.508       .  S
C292        O297   1.270       .  A
C292        O295   1.267       .  A
Cd293       O300   2.416       .  S
Cd293       O298   2.399       .  S
Cd293       O294   2.487       .  S
C296        O300   1.264       .  A
C296        C343   1.474       .  S
C301       C1149   1.519   1_655  S
C301       C1183   1.518       .  S
O302        C305   1.269       .  A
O302       Cd307   2.463       .  S
C303        C741   1.518       .  S
C303        O312   1.266       .  A
C303        O308   1.271       .  A
O304        C310   1.271       .  A
O304       Cd307   2.458       .  S
C305        O313   1.266       .  A
C305        C329   1.494   1_545  S
C306        O311   1.270       .  A
C306        O309   1.264       .  A
C306        C357   1.479       .  S
Cd307       O314   2.452       .  S
Cd307       O313   2.449       .  S
Cd307       O312   2.398       .  S
Cd307       O308   2.485       .  S
Cd307       O311   2.487       .  S
Cd307       O309   2.401       .  S
C310        O314   1.267       .  A
O315        C318   1.268       .  A
O315       Cd320   2.465       .  S
C316        C328   1.517       .  S
C316        O325   1.267       .  A
C316        O321   1.271       .  A
O317        C323   1.270       .  A
O317       Cd320   2.488       .  S
C318        O326   1.266       .  A
C318        C332   1.493       .  S
C319        O324   1.271       .  A
C319        O322   1.267       .  A
Cd320       O327   2.401       .  S
Cd320       O326   2.449       .  S
Cd320       O325   2.402       .  S
Cd320       O321   2.480       .  S
Cd320       O324   2.462       .  S
Cd320       O322   2.456       .  S
C323        O327   1.263       .  A
C323        C346   1.480       .  S
C328       C1123   1.516       .  S
C328       C1169   1.518   1_455  S
C329        C330   1.420       .  A
C329        C334   1.414       .  A
C330        C331   1.413       .  A
C330        C335   1.453   1_565  S
C331        C332   1.413       .  A
C331        C338   1.452       .  S
C332        C333   1.419       .  A
C333        C334   1.412       .  A
C333        C336   1.453       .  S
C334        C337   1.452       .  S
C335        N342   1.158       .  T
C336        N341   1.158       .  T
C337        N339   1.157       .  T
C338        N340   1.157       .  T
C343        C344   1.411       .  A
C343        C348   1.409       .  A
C344        C345   1.414       .  A
C344        C349   1.449       .  S
C345        C346   1.413       .  A
C345        C352   1.449       .  S
C346        C347   1.414       .  A
C347        C348   1.404       .  A
C347        C350   1.454       .  S
C348        C351   1.452       .  S
C349        N356   1.157       .  T
C350        N355   1.157       .  T
C351        N353   1.157       .  T
C352        N354   1.157       .  T
C357        C358   1.413       .  A
C357        C362   1.413       .  A
C358        C359   1.414       .  A
C358        C363   1.450       .  S
C359        C360   1.411       .  A
C359        C366   1.449       .  S
C360        C361   1.410       .  A
C361        C362   1.403       .  A
C361        C364   1.452       .  S
C362        C365   1.454       .  S
C363        N370   1.157       .  T
C364        N369   1.157       .  T
C365        N367   1.157       .  T
C366        N368   1.157       .  T
C371        C372   1.422       .  A
C372        C373   1.415       .  A
C372        C377   1.454   1_565  S
C373        C374   1.420       .  A
C373        C380   1.453       .  S
C375        C376   1.415       .  A
C375        C378   1.454       .  S
C376        C379   1.453       .  S
C377        N384   1.158       .  T
C378        N383   1.158       .  T
C379        N381   1.158       .  T
C380        N382   1.158       .  T
C385        C386   1.419   1_655  A
C385       C1050   1.413       .  A
C386        C387   1.413       .  A
C386        C391   1.453       .  S
C387        C388   1.413       .  A
C387        C394   1.452       .  S
C388       C1269   1.419   1_455  A
C389        C828   1.419       .  A
C390        C605   1.413   1_556  A
C390        C393   1.452       .  S
C391        N398   1.158       .  T
C392        N397   1.158       .  T
C393        N395   1.158       .  T
C394        N396   1.158       .  T
C399        C400   1.415   1_655  A
C399       C1284   1.418       .  A
C400        C401   1.414       .  A
C400        C405   1.450       .  S
C401       C1282   1.412       .  A
C401        C408   1.451       .  S
C402        C841   1.412       .  A
C402        C403   1.408       .  A
C403        C404   1.405       .  A
C403        C406   1.449       .  S
C404        C839   1.418       .  A
C404        C407   1.455       .  S
C405        N412   1.157       .  T
C406        N411   1.156       .  T
C407        N409   1.158       .  T
C408        N410   1.157       .  T
C413        C414   1.411       .  A
C413        C858   1.408       .  A
C414        C415   1.414       .  A
C414        C419   1.450       .  S
C415        C416   1.414       .  A
C415        C422   1.450       .  S
C416        C857   1.416       .  A
C417       C1296   1.416       .  A
C417        C418   1.403       .  A
C417        C420   1.455       .  S
C418       C1293   1.408   1_455  A
C418        C421   1.450       .  S
C419        N426   1.157       .  T
C420        N425   1.158       .  T
C421        N423   1.156       .  T
C422        N424   1.157       .  T
C427        C678   1.500       .  S
C427        C428   1.420       .  A
C427        C872   1.415       .  A
C428        C429   1.411       .  A
C428        C433   1.452       .  S
C429        C430   1.416       .  A
C429        C436   1.454       .  S
C430        C871   1.423       .  A
C431       C1310   1.423   1_455  A
C431        C432   1.413       .  A
C431        C434   1.452       .  S
C432       C1307   1.415       .  A
C432        C435   1.454       .  S
C433        N440   1.158       .  T
C434        N439   1.158       .  T
C435        N437   1.158       .  T
C436        N438   1.158       .  T
C441        C456   1.520       .  S
C441        C469   1.521       .  S
C441        C512   1.517       .  S
C441        C539   1.519       .  S
O442        C445   1.268       .  A
O442       Cd447   2.454       .  S
C443        C494   1.520       .  S
C443        O452   1.267       .  A
C443        O448   1.272       .  A
C445        O893   1.264       .  A
C445        C650   1.502       .  S
C446        C521   1.517       .  S
C446        O451   1.271       .  A
Cd447       O884   2.475       .  S
Cd447       O454   2.428       .  S
Cd447       O893   2.452       .  S
Cd447       O452   2.400       .  S
Cd447       O448   2.491       .  S
Cd447       O891   2.451       .  S
Cd447       O449   2.453       .  S
O449        C886   1.267       .  A
C450        O884   1.268       .  A
C450        O454   1.262       .  A
C450        C633   1.474       .  S
O455        C458   1.268       .  A
O455       Cd460   2.463       .  S
C456        O465   1.267       .  A
C456        O461   1.272       .  A
O457        C463   1.271       .  A
O457       Cd900   2.449       .  S
C459        O464   1.268       .  A
C459        O902   1.263       .  A
C459        C622   1.479       .  S
Cd460       O467   2.457       .  S
Cd460       O465   2.404       .  S
Cd460       O461   2.492       .  S
Cd460       O462   2.436       .  S
C463        C988   1.516       .  S
C463        O907   1.267       .  A
O464       Cd900   2.478       .  S
O466        C898   1.264       .  A
O466       Cd900   2.449       .  S
O468       C1131   1.269       .  A
O468       Cd473   2.484       .  S
C469        O478   1.267       .  A
C469        O474   1.273       .  A
O470        C476   1.270       .  A
C471        O479   1.265       .  A
C471        C605   1.494       .  S
C472        O477   1.270       .  A
C472        C619   1.487       .  S
Cd473      O1130   2.459       .  S
Cd473       O700   2.463       .  S
Cd473      O1139   2.448       .  S
Cd473       O478   2.401       .  S
Cd473       O474   2.495       .  S
Cd473       O917   2.494       .  S
Cd473       O475   2.395       .  S
O475        C912   1.263       .  A
C476        C548   1.519       .  S
O480        C916   1.267       .  A
O480       Cd693   2.463   1_554  S
O481        C484   1.272       .  A
O481       Cd486   2.492       .  S
C482        O487   1.269   1_556  A
C482        C608   1.493       .  S
O483        C489   1.270       .  A
O483      Cd1146   2.455       .  S
C484        C494   1.520       .  S
C484        O492   1.267       .  A
C485        O490   1.269       .  A
C485        O928   1.264       .  A
C485        C636   1.482       .  S
Cd486       O713   2.465   1_554  S
Cd486       O492   2.404       .  S
Cd486       O487   2.481       .  S
Cd486       O488   2.394       .  S
C489        C961   1.519       .  S
C489        O933   1.267       .  A
O490       Cd926   2.492       .  S
O491       C1142   1.265       .  A
O491      Cd1146   2.451       .  S
O493       Cd706   2.465       .  S
C494        C503   1.517       .  S
C494        C530   1.518       .  S
O495        C718   1.269       .  A
O495       Cd500   2.468       .  S
C496        C521   1.518       .  S
C496        O505   1.266       .  A
C496        O501   1.271       .  A
O497        C503   1.270       .  A
O497       Cd720   2.458   1_554  S
C498        O715   1.269   1_554  A
C498        O506   1.265       .  A
C498        C591   1.508   1_545  S
C499        O504   1.269       .  A
C499        O502   1.264       .  A
C499        C580   1.475       .  S
Cd500       O717   2.458       .  S
Cd500       O727   2.454       .  S
Cd500       O726   2.438       .  S
Cd500       O505   2.403       .  S
Cd500       O501   2.487       .  S
Cd500       O504   2.479       .  S
Cd500       O502   2.410       .  S
C503        O507   1.267       .  A
O506       Cd720   2.438   1_554  S
O507       Cd720   2.454   1_554  S
O508        C511   1.269   1_554  A
O508       Cd513   2.466       .  S
C509        C988   1.518       .  S
C509        O518   1.265       .  A
C509        O514   1.271       .  A
O510        C516   1.269       .  A
O510       Cd513   2.474       .  S
C511        O739   1.265       .  A
C511        C594   1.508       .  S
C512        O517   1.270       .  A
C512        O515   1.267       .  A
Cd513       O520   2.416       .  S
Cd513       O739   2.438   1_554  S
Cd513       O518   2.399       .  S
Cd513       O514   2.487       .  S
Cd513       O737   2.461   1_554  S
Cd513       O735   2.451   1_554  S
O515       Cd733   2.451       .  S
C516        O520   1.264       .  A
C516        C563   1.474       .  S
O517       Cd733   2.461       .  S
O519        C731   1.265       .  A
O519       Cd733   2.438       .  S
O522        C525   1.269       .  A
O522       Cd527   2.463       .  S
C523        C961   1.518       .  S
C523        O532   1.266       .  A
C523        O528   1.271       .  A
O524        C530   1.271       .  A
O524       Cd527   2.458       .  S
C525        O533   1.266       .  A
C525        C549   1.494   1_545  S
C526        O531   1.270       .  A
C526        O529   1.264       .  A
C526        C577   1.479       .  S
Cd527       O534   2.452       .  S
Cd527       O533   2.449       .  S
Cd527       O532   2.398       .  S
Cd527       O528   2.485       .  S
Cd527       O531   2.487       .  S
Cd527       O529   2.402       .  S
C530        O534   1.267       .  A
O535        C538   1.268       .  A
O535       Cd540   2.465       .  S
C536        C548   1.517       .  S
C536        O545   1.267       .  A
C536        O541   1.271       .  A
O537        C543   1.270       .  A
O537       Cd540   2.488       .  S
C538        O546   1.266       .  A
C538        C552   1.493       .  S
C539        O544   1.271       .  A
C539        O542   1.267       .  A
Cd540       O547   2.401       .  S
Cd540       O546   2.449       .  S
Cd540       O545   2.402       .  S
Cd540       O541   2.480       .  S
Cd540       O544   2.462       .  S
Cd540       O542   2.456       .  S
C543        O547   1.263       .  A
C543        C566   1.480       .  S
C549        C550   1.420       .  A
C549        C554   1.414       .  A
C550        C551   1.413       .  A
C550        C555   1.453   1_565  S
C551        C552   1.413       .  A
C551        C558   1.452       .  S
C552        C553   1.419       .  A
C553        C554   1.412       .  A
C553        C556   1.453       .  S
C554        C557   1.452       .  S
C555        N562   1.158       .  T
C556        N561   1.158       .  T
C557        N559   1.157       .  T
C558        N560   1.157       .  T
C563        C564   1.411       .  A
C563        C568   1.409       .  A
C564        C565   1.414       .  A
C564        C569   1.449       .  S
C565        C566   1.413       .  A
C565        C572   1.449       .  S
C566        C567   1.414       .  A
C567        C568   1.404       .  A
C567        C570   1.454       .  S
C568        C571   1.452       .  S
C569        N576   1.157       .  T
C570        N575   1.157       .  T
C571        N573   1.157       .  T
C572        N574   1.157       .  T
C577        C578   1.413       .  A
C577        C582   1.413       .  A
C578        C579   1.414       .  A
C578        C583   1.450       .  S
C579        C580   1.411       .  A
C579        C586   1.449       .  S
C580        C581   1.410       .  A
C581        C582   1.403       .  A
C581        C584   1.452       .  S
C582        C585   1.454       .  S
C583        N590   1.157       .  T
C584        N589   1.157       .  T
C585        N587   1.157       .  T
C586        N588   1.157       .  T
C591        C592   1.422       .  A
C591        C816   1.420   1_554  A
C592        C593   1.415       .  A
C592        C597   1.454   1_565  S
C593        C594   1.420   1_554  A
C593        C600   1.453       .  S
C594        C815   1.422       .  A
C595        C814   1.422       .  A
C595        C596   1.415       .  A
C595        C598   1.454       .  S
C596        C811   1.420       .  A
C596        C599   1.453       .  S
C597        N604   1.158       .  T
C598        N603   1.158       .  T
C599        N601   1.158       .  T
C600        N602   1.158       .  T
C605        C606   1.419       .  A
C606        C607   1.413       .  A
C606        C611   1.453       .  S
C607        C608   1.413   1_554  A
C607        C614   1.452       .  S
C609       C1048   1.419       .  A
C609        C830   1.414       .  A
C609        C832   1.453       .  S
C610       C1265   1.413       .  A
C610        C829   1.414       .  A
C610        C613   1.452       .  S
C611        N618   1.158       .  T
C612        C829   1.453       .  S
C612        N617   1.158       .  T
C613        N615   1.158       .  T
C614        N616   1.158       .  T
C619        C620   1.415       .  A
C620        C621   1.414       .  A
C620        C625   1.450       .  S
C621        C628   1.451       .  S
C622       C1061   1.412       .  A
C622        C623   1.408       .  A
C623        C624   1.405       .  A
C623        C626   1.449       .  S
C624       C1059   1.418       .  A
C624        C627   1.455       .  S
C625        N632   1.157       .  T
C626        N631   1.156       .  T
C627        N629   1.158       .  T
C628        N630   1.157       .  T
C633        C634   1.411       .  A
C633       C1078   1.408       .  A
C634        C635   1.414       .  A
C634        C639   1.450       .  S
C635        C636   1.414       .  A
C635        C642   1.450       .  S
C636       C1077   1.416       .  A
C637        C638   1.403       .  A
C637        C640   1.455       .  S
C638        C641   1.450       .  S
C639        N646   1.157       .  T
C640        N645   1.158       .  T
C641        N643   1.156       .  T
C642        N644   1.157       .  T
C647        C898   1.500       .  S
C647        C648   1.420       .  A
C647       C1092   1.415       .  A
C648        C649   1.411       .  A
C648        C653   1.452       .  S
C649        C650   1.416       .  A
C649        C656   1.454       .  S
C650       C1091   1.423       .  A
C651        C652   1.413       .  A
C651        C654   1.452       .  S
C652        C655   1.454       .  S
C653        N660   1.158       .  T
C654        N659   1.158       .  T
C655        N657   1.158       .  T
C656        N658   1.158       .  T
C661        C676   1.520       .  S
C661        C689   1.521       .  S
C661        C732   1.517       .  S
C661        C759   1.519       .  S
O662        C665   1.268       .  A
O662       Cd667   2.454       .  S
C663        C714   1.520       .  S
C663        O672   1.267       .  A
C663        O668   1.272       .  A
C665       O1113   1.264       .  A
C665        C870   1.502       .  S
C666        C741   1.517       .  S
C666        O671   1.271       .  A
Cd667      O1104   2.475       .  S
Cd667       O674   2.428       .  S
Cd667      O1113   2.452       .  S
Cd667       O672   2.400       .  S
Cd667       O668   2.491       .  S
Cd667      O1111   2.451       .  S
Cd667       O669   2.453       .  S
O669       C1106   1.267       .  A
C670       O1104   1.268       .  A
C670        O674   1.262       .  A
C670        C853   1.474       .  S
O675        C678   1.268       .  A
O675       Cd680   2.463       .  S
C676        O685   1.267       .  A
C676        O681   1.272       .  A
O677        C683   1.271       .  A
O677      Cd1120   2.449       .  S
C679        O684   1.268       .  A
C679       O1122   1.263       .  A
C679        C842   1.479       .  S
Cd680       O687   2.457       .  S
Cd680       O685   2.404       .  S
Cd680       O681   2.492       .  S
Cd680       O682   2.436       .  S
C683       C1208   1.516       .  S
C683       O1127   1.267       .  A
O684      Cd1120   2.478       .  S
O686       C1118   1.264       .  A
O686      Cd1120   2.449       .  S
O688        C911   1.269   1_556  A
O688       Cd693   2.484       .  S
C689        O698   1.267       .  A
C689        O694   1.273       .  A
O690        C696   1.270       .  A
C691        O699   1.265       .  A
C691        C825   1.494       .  S
C692        O697   1.270       .  A
C692        C839   1.487       .  S
Cd693       O910   2.459   1_556  S
Cd693       O919   2.448   1_556  S
Cd693       O698   2.401       .  S
Cd693       O694   2.495       .  S
Cd693      O1137   2.494       .  S
Cd693       O695   2.395       .  S
O695       C1132   1.263       .  A
C696        C768   1.519       .  S
O700       C1136   1.267       .  A
O701        C704   1.272       .  A
O701       Cd706   2.492       .  S
C702        O707   1.269       .  A
C702        C828   1.493       .  S
O703        C709   1.270       .  A
O703       Cd926   2.455   1_556  S
C704        C714   1.520       .  S
C704        O712   1.267       .  A
C705        O710   1.269       .  A
C705       O1148   1.264       .  A
C705        C856   1.482       .  S
Cd706       O712   2.404       .  S
Cd706       O707   2.481       .  S
Cd706       O708   2.394       .  S
C709       C1181   1.519       .  S
C709       O1153   1.267       .  A
O710      Cd1146   2.492       .  S
O711        C922   1.265       .  A
O711       Cd926   2.451   1_556  S
C714        C723   1.517       .  S
C714        C750   1.518       .  S
O715       Cd720   2.468       .  S
C716        C741   1.518       .  S
C716        O725   1.266       .  A
C716        O721   1.271       .  A
O717        C723   1.270       .  A
C718        O726   1.265       .  A
C718        C811   1.508   1_545  S
C719        O724   1.269       .  A
C719        O722   1.264       .  A
C719        C800   1.475       .  S
Cd720       O725   2.403       .  S
Cd720       O721   2.487       .  S
Cd720       O724   2.479       .  S
Cd720       O722   2.410       .  S
C723        O727   1.267       .  A
O728        C731   1.269       .  A
O728       Cd733   2.466       .  S
C729       C1208   1.518       .  S
C729        O738   1.265       .  A
C729        O734   1.271       .  A
O730        C736   1.269       .  A
O730       Cd733   2.474       .  S
C731        C814   1.508       .  S
C732        O737   1.270       .  A
C732        O735   1.267       .  A
Cd733       O740   2.416       .  S
Cd733       O738   2.399       .  S
Cd733       O734   2.487       .  S
C736        O740   1.264       .  A
C736        C783   1.474       .  S
O742        C745   1.269       .  A
O742       Cd747   2.463       .  S
C743       C1181   1.518       .  S
C743        O752   1.266       .  A
C743        O748   1.271       .  A
O744        C750   1.271       .  A
O744       Cd747   2.458       .  S
C745        O753   1.266       .  A
C745        C769   1.494   1_545  S
C746        O751   1.270       .  A
C746        O749   1.264       .  A
C746        C797   1.479       .  S
Cd747       O754   2.452       .  S
Cd747       O753   2.449       .  S
Cd747       O752   2.398       .  S
Cd747       O748   2.485       .  S
Cd747       O751   2.487       .  S
Cd747       O749   2.401       .  S
C750        O754   1.267       .  A
O755        C758   1.268       .  A
O755       Cd760   2.465       .  S
C756        C768   1.517       .  S
C756        O765   1.267       .  A
C756        O761   1.271       .  A
O757        C763   1.270       .  A
O757       Cd760   2.488       .  S
C758        O766   1.266       .  A
C758        C772   1.493       .  S
C759        O764   1.271       .  A
C759        O762   1.267       .  A
Cd760       O767   2.401       .  S
Cd760       O766   2.449       .  S
Cd760       O765   2.402       .  S
Cd760       O761   2.480       .  S
Cd760       O764   2.462       .  S
Cd760       O762   2.456       .  S
C763        O767   1.263       .  A
C763        C786   1.480       .  S
C769        C770   1.420       .  A
C769        C774   1.414       .  A
C770        C771   1.413       .  A
C770        C775   1.453   1_565  S
C771        C772   1.413       .  A
C771        C778   1.452       .  S
C772        C773   1.419       .  A
C773        C774   1.412       .  A
C773        C776   1.453       .  S
C774        C777   1.452       .  S
C775        N782   1.158       .  T
C776        N781   1.158       .  T
C777        N779   1.157       .  T
C778        N780   1.157       .  T
C783        C784   1.411       .  A
C783        C788   1.409       .  A
C784        C785   1.414       .  A
C784        C789   1.449       .  S
C785        C786   1.413       .  A
C785        C792   1.449       .  S
C786        C787   1.414       .  A
C787        C788   1.404       .  A
C787        C790   1.454       .  S
C788        C791   1.452       .  S
C789        N796   1.157       .  T
C790        N795   1.157       .  T
C791        N793   1.157       .  T
C792        N794   1.157       .  T
C797        C798   1.413       .  A
C797        C802   1.413       .  A
C798        C799   1.414       .  A
C798        C803   1.450       .  S
C799        C800   1.411       .  A
C799        C806   1.449       .  S
C800        C801   1.410       .  A
C801        C802   1.403       .  A
C801        C804   1.452       .  S
C802        C805   1.454       .  S
C803        N810   1.157       .  T
C804        N809   1.157       .  T
C805        N807   1.157       .  T
C806        N808   1.157       .  T
C811        C812   1.422       .  A
C812        C813   1.415       .  A
C812        C817   1.454   1_565  S
C813        C814   1.420       .  A
C813        C820   1.453       .  S
C815        C816   1.415       .  A
C815        C818   1.454       .  S
C816        C819   1.453       .  S
C817        N824   1.158       .  T
C818        N823   1.158       .  T
C819        N821   1.158       .  T
C820        N822   1.158       .  T
C825        C826   1.419       .  A
C826        C827   1.413       .  A
C826        C831   1.453       .  S
C827        C828   1.413       .  A
C827        C834   1.452       .  S
C829       C1268   1.419       .  A
C830       C1045   1.413   1_556  A
C830        C833   1.452       .  S
C831        N838   1.158       .  T
C832        N837   1.158       .  T
C833        N835   1.158       .  T
C834        N836   1.158       .  T
C839        C840   1.415       .  A
C840        C841   1.414       .  A
C840        C845   1.450       .  S
C841        C848   1.451       .  S
C842       C1281   1.412       .  A
C842        C843   1.408       .  A
C843        C844   1.405       .  A
C843        C846   1.449       .  S
C844       C1279   1.418       .  A
C844        C847   1.455       .  S
C845        N852   1.157       .  T
C846        N851   1.156       .  T
C847        N849   1.158       .  T
C848        N850   1.157       .  T
C853        C854   1.411       .  A
C853       C1298   1.408       .  A
C854        C855   1.414       .  A
C854        C859   1.450       .  S
C855        C856   1.414       .  A
C855        C862   1.450       .  S
C856       C1297   1.416       .  A
C857        C858   1.403       .  A
C857        C860   1.455       .  S
C858        C861   1.450       .  S
C859        N866   1.157       .  T
C860        N865   1.158       .  T
C861        N863   1.156       .  T
C862        N864   1.157       .  T
C867       C1118   1.500       .  S
C867        C868   1.420       .  A
C867       C1312   1.415       .  A
C868        C869   1.411       .  A
C868        C873   1.452       .  S
C869        C870   1.416       .  A
C869        C876   1.454       .  S
C870       C1311   1.423       .  A
C871        C872   1.413       .  A
C871        C874   1.452       .  S
C872        C875   1.454       .  S
C873        N880   1.158       .  T
C874        N879   1.158       .  T
C875        N877   1.158       .  T
C876        N878   1.158       .  T
C881        C896   1.520       .  S
C881        C909   1.521       .  S
C881        C952   1.517       .  S
C881        C979   1.519       .  S
O882        C885   1.268       .  A
O882       Cd887   2.454       .  S
C883        C934   1.520       .  S
C883        O892   1.267       .  A
C883        O888   1.272       .  A
C885       C1090   1.502       .  S
C886        C961   1.517       .  S
C886        O891   1.271       .  A
Cd887       O894   2.428       .  S
Cd887       O892   2.400       .  S
Cd887       O888   2.491       .  S
Cd887       O889   2.453       .  S
C890        O894   1.262       .  A
C890       C1073   1.474       .  S
O895        C898   1.268       .  A
O895       Cd900   2.463       .  S
C896        O905   1.267       .  A
C896        O901   1.272       .  A
O897        C903   1.271   1_655  A
C899        O904   1.268   1_455  A
C899       C1062   1.479       .  S
Cd900       O907   2.457       .  S
Cd900       O905   2.404       .  S
Cd900       O901   2.492       .  S
Cd900       O902   2.436       .  S
O908       Cd913   2.484       .  S
C909        O918   1.267       .  A
C909        O914   1.273       .  A
O910        C916   1.270       .  A
C911        O919   1.265       .  A
C911       C1045   1.494       .  S
C912        O917   1.270       .  A
C912       C1059   1.487       .  S
Cd913      O1140   2.463       .  S
Cd913       O918   2.401       .  S
Cd913       O914   2.495       .  S
Cd913       O915   2.395       .  S
C916        C988   1.519       .  S
O920      Cd1133   2.463   1_554  S
O921        C924   1.272       .  A
O921       Cd926   2.492       .  S
C922        O927   1.269   1_556  A
C922       C1048   1.493       .  S
O923        C929   1.270   1_655  A
C924        C934   1.520       .  S
C924        O932   1.267       .  A
C925        O930   1.269   1_455  A
C925       C1076   1.482       .  S
Cd926      O1153   2.465   1_554  S
Cd926       O932   2.404       .  S
Cd926       O927   2.481       .  S
Cd926       O928   2.394       .  S
O933      Cd1146   2.465       .  S
C934        C943   1.517       .  S
C934        C970   1.518       .  S
O935       C1158   1.269       .  A
O935       Cd940   2.468       .  S
C936        C961   1.518       .  S
C936        O945   1.266       .  A
C936        O941   1.271       .  A
O937        C943   1.270       .  A
O937      Cd1160   2.458   1_554  S
C938       O1155   1.269   1_554  A
C938        O946   1.265       .  A
C938       C1031   1.508   1_545  S
C939        O944   1.269       .  A
C939        O942   1.264       .  A
C939       C1020   1.475       .  S
Cd940      O1157   2.458       .  S
Cd940      O1167   2.454       .  S
Cd940      O1166   2.438       .  S
Cd940       O945   2.403       .  S
Cd940       O941   2.487       .  S
Cd940       O944   2.479       .  S
Cd940       O942   2.410       .  S
C943        O947   1.267       .  A
O946      Cd1160   2.438   1_554  S
O947      Cd1160   2.454   1_554  S
O948        C951   1.269   1_554  A
O948       Cd953   2.466       .  S
C949        O958   1.265       .  A
C949        O954   1.271       .  A
O950        C956   1.269       .  A
O950       Cd953   2.474       .  S
C951       O1179   1.265       .  A
C951       C1034   1.508       .  S
C952        O957   1.270       .  A
C952        O955   1.267       .  A
Cd953       O960   2.416       .  S
Cd953      O1179   2.438   1_554  S
Cd953       O958   2.399       .  S
Cd953       O954   2.487       .  S
Cd953      O1177   2.461   1_554  S
Cd953      O1175   2.451   1_554  S
O955      Cd1173   2.451       .  S
C956        O960   1.264       .  A
C956       C1003   1.474       .  S
O957      Cd1173   2.461       .  S
O959       C1171   1.265       .  A
O959      Cd1173   2.438       .  S
O962        C965   1.269       .  A
O962       Cd967   2.463       .  S
C963        O972   1.266       .  A
C963        O968   1.271       .  A
O964        C970   1.271       .  A
O964       Cd967   2.458       .  S
C965        O973   1.266       .  A
C965        C989   1.494   1_545  S
C966        O971   1.270       .  A
C966        O969   1.264       .  A
C966       C1017   1.479       .  S
Cd967       O974   2.452       .  S
Cd967       O973   2.449       .  S
Cd967       O972   2.398       .  S
Cd967       O968   2.485       .  S
Cd967       O971   2.487       .  S
Cd967       O969   2.402       .  S
C970        O974   1.267       .  A
O975        C978   1.268       .  A
O975       Cd980   2.465       .  S
C976        C988   1.517       .  S
C976        O985   1.267       .  A
C976        O981   1.271       .  A
O977        C983   1.270       .  A
O977       Cd980   2.488       .  S
C978        O986   1.266       .  A
C978        C992   1.493       .  S
C979        O984   1.271       .  A
C979        O982   1.267       .  A
Cd980       O987   2.401       .  S
Cd980       O986   2.449       .  S
Cd980       O985   2.402       .  S
Cd980       O981   2.480       .  S
Cd980       O984   2.462       .  S
Cd980       O982   2.456       .  S
C983        O987   1.263       .  A
C983       C1006   1.480       .  S
C989        C990   1.420       .  A
C989        C994   1.414       .  A
C990        C991   1.413       .  A
C990        C995   1.453   1_565  S
C991        C992   1.413       .  A
C991        C998   1.452       .  S
C992        C993   1.419       .  A
C993        C994   1.412       .  A
C993        C996   1.453       .  S
C994        C997   1.452       .  S
C995       N1002   1.158       .  T
C996       N1001   1.158       .  T
C997        N999   1.157       .  T
C998       N1000   1.157       .  T
C1003      C1004   1.411       .  A
C1003      C1008   1.409       .  A
C1004      C1005   1.414       .  A
C1004      C1009   1.449       .  S
C1005      C1006   1.413       .  A
C1005      C1012   1.449       .  S
C1006      C1007   1.414       .  A
C1007      C1008   1.404       .  A
C1007      C1010   1.454       .  S
C1008      C1011   1.452       .  S
C1009      N1016   1.157       .  T
C1010      N1015   1.157       .  T
C1011      N1013   1.157       .  T
C1012      N1014   1.157       .  T
C1017      C1018   1.413       .  A
C1017      C1022   1.413       .  A
C1018      C1019   1.414       .  A
C1018      C1023   1.450       .  S
C1019      C1020   1.411       .  A
C1019      C1026   1.449       .  S
C1020      C1021   1.410       .  A
C1021      C1022   1.403       .  A
C1021      C1024   1.452       .  S
C1022      C1025   1.454       .  S
C1023      N1030   1.157       .  T
C1024      N1029   1.157       .  T
C1025      N1027   1.157       .  T
C1026      N1028   1.157       .  T
C1031      C1032   1.422       .  A
C1031      C1256   1.420   1_554  A
C1032      C1033   1.415       .  A
C1032      C1037   1.454   1_565  S
C1033      C1034   1.420   1_554  A
C1033      C1040   1.453       .  S
C1034      C1255   1.422       .  A
C1035      C1254   1.422       .  A
C1035      C1036   1.415       .  A
C1035      C1038   1.454       .  S
C1036      C1251   1.420       .  A
C1036      C1039   1.453       .  S
C1037      N1044   1.158       .  T
C1038      N1043   1.158       .  T
C1039      N1041   1.158       .  T
C1040      N1042   1.158       .  T
C1045      C1046   1.419       .  A
C1046      C1047   1.413       .  A
C1046      C1051   1.453       .  S
C1047      C1048   1.413   1_554  A
C1047      C1054   1.452       .  S
C1049      C1270   1.414       .  A
C1049      C1272   1.453       .  S
C1050      C1269   1.414       .  A
C1050      C1053   1.452       .  S
C1051      N1058   1.158       .  T
C1052      C1269   1.453       .  S
C1052      N1057   1.158       .  T
C1053      N1055   1.158       .  T
C1054      N1056   1.158       .  T
C1059      C1060   1.415       .  A
C1060      C1061   1.414       .  A
C1060      C1065   1.450       .  S
C1061      C1068   1.451       .  S
C1062      C1063   1.408   1_455  A
C1063      C1064   1.405       .  A
C1063      C1066   1.449       .  S
C1064      C1067   1.455       .  S
C1065      N1072   1.157       .  T
C1066      N1071   1.156       .  T
C1067      N1069   1.158       .  T
C1068      N1070   1.157       .  T
C1073      C1074   1.411       .  A
C1074      C1075   1.414       .  A
C1074      C1079   1.450       .  S
C1075      C1076   1.414   1_655  A
C1075      C1082   1.450       .  S
C1077      C1078   1.403       .  A
C1077      C1080   1.455       .  S
C1078      C1081   1.450       .  S
C1079      N1086   1.157       .  T
C1080      N1085   1.158       .  T
C1081      N1083   1.156       .  T
C1082      N1084   1.157       .  T
C1087      C1088   1.420   1_455  A
C1088      C1089   1.411       .  A
C1088      C1093   1.452       .  S
C1089      C1090   1.416       .  A
C1089      C1096   1.454       .  S
C1091      C1092   1.413       .  A
C1091      C1094   1.452       .  S
C1092      C1095   1.454       .  S
C1093      N1100   1.158       .  T
C1094      N1099   1.158       .  T
C1095      N1097   1.158       .  T
C1096      N1098   1.158       .  T
C1101      C1116   1.520       .  S
C1101      C1129   1.521       .  S
C1101      C1172   1.517       .  S
C1101      C1199   1.519       .  S
O1102      C1105   1.268       .  A
O1102     Cd1107   2.454       .  S
C1103      C1154   1.520       .  S
C1103      O1112   1.267       .  A
C1103      O1108   1.272       .  A
C1105      C1310   1.502       .  S
C1106      C1181   1.517       .  S
C1106      O1111   1.271       .  A
Cd1107     O1114   2.428       .  S
Cd1107     O1112   2.400       .  S
Cd1107     O1108   2.491       .  S
Cd1107     O1109   2.453       .  S
C1110      O1114   1.262       .  A
C1110      C1293   1.474       .  S
O1115      C1118   1.268       .  A
O1115     Cd1120   2.463       .  S
C1116      O1125   1.267       .  A
C1116      O1121   1.272       .  A
O1117      C1123   1.271   1_655  A
C1119      O1124   1.268   1_455  A
C1119      C1282   1.479       .  S
Cd1120     O1127   2.457       .  S
Cd1120     O1125   2.404       .  S
Cd1120     O1121   2.492       .  S
Cd1120     O1122   2.436       .  S
O1128     Cd1133   2.484       .  S
C1129      O1138   1.267       .  A
C1129      O1134   1.273       .  A
O1130      C1136   1.270       .  A
C1131      O1139   1.265       .  A
C1131      C1265   1.494       .  S
C1132      O1137   1.270       .  A
C1132      C1279   1.487       .  S
Cd1133     O1138   2.401       .  S
Cd1133     O1134   2.495       .  S
Cd1133     O1135   2.395       .  S
C1136      C1208   1.519       .  S
O1141      C1144   1.272       .  A
O1141     Cd1146   2.492       .  S
C1142      O1147   1.269       .  A
C1142      C1268   1.493       .  S
O1143      C1149   1.270   1_655  A
C1144      C1154   1.520       .  S
C1144      O1152   1.267       .  A
C1145      O1150   1.269   1_455  A
C1145      C1296   1.482       .  S
Cd1146     O1152   2.404       .  S
Cd1146     O1147   2.481       .  S
Cd1146     O1148   2.394       .  S
C1154      C1163   1.517       .  S
C1154      C1190   1.518       .  S
O1155     Cd1160   2.468       .  S
C1156      C1181   1.518       .  S
C1156      O1165   1.266       .  A
C1156      O1161   1.271       .  A
O1157      C1163   1.270       .  A
C1158      O1166   1.265       .  A
C1158      C1251   1.508   1_545  S
C1159      O1164   1.269       .  A
C1159      O1162   1.264       .  A
C1159      C1240   1.475       .  S
Cd1160     O1165   2.403       .  S
Cd1160     O1161   2.487       .  S
Cd1160     O1164   2.479       .  S
Cd1160     O1162   2.410       .  S
C1163      O1167   1.267       .  A
O1168      C1171   1.269       .  A
O1168     Cd1173   2.466       .  S
C1169      O1178   1.265       .  A
C1169      O1174   1.271       .  A
O1170      C1176   1.269       .  A
O1170     Cd1173   2.474       .  S
C1171      C1254   1.508       .  S
C1172      O1177   1.270       .  A
C1172      O1175   1.267       .  A
Cd1173     O1180   2.416       .  S
Cd1173     O1178   2.399       .  S
Cd1173     O1174   2.487       .  S
C1176      O1180   1.264       .  A
C1176      C1223   1.474       .  S
O1182      C1185   1.269       .  A
O1182     Cd1187   2.463       .  S
C1183      O1192   1.266       .  A
C1183      O1188   1.271       .  A
O1184      C1190   1.271       .  A
O1184     Cd1187   2.458       .  S
C1185      O1193   1.266       .  A
C1185      C1209   1.494   1_545  S
C1186      O1191   1.270       .  A
C1186      O1189   1.264       .  A
C1186      C1237   1.479       .  S
Cd1187     O1194   2.452       .  S
Cd1187     O1193   2.449       .  S
Cd1187     O1192   2.398       .  S
Cd1187     O1188   2.485       .  S
Cd1187     O1191   2.487       .  S
Cd1187     O1189   2.401       .  S
C1190      O1194   1.267       .  A
O1195      C1198   1.268       .  A
O1195     Cd1200   2.465       .  S
C1196      C1208   1.517       .  S
C1196      O1205   1.267       .  A
C1196      O1201   1.271       .  A
O1197      C1203   1.270       .  A
O1197     Cd1200   2.488       .  S
C1198      O1206   1.266       .  A
C1198      C1212   1.493       .  S
C1199      O1204   1.271       .  A
C1199      O1202   1.267       .  A
Cd1200     O1207   2.401       .  S
Cd1200     O1206   2.449       .  S
Cd1200     O1205   2.402       .  S
Cd1200     O1201   2.480       .  S
Cd1200     O1204   2.462       .  S
Cd1200     O1202   2.456       .  S
C1203      O1207   1.263       .  A
C1203      C1226   1.480       .  S
C1209      C1210   1.420       .  A
C1209      C1214   1.414       .  A
C1210      C1211   1.413       .  A
C1210      C1215   1.453   1_565  S
C1211      C1212   1.413       .  A
C1211      C1218   1.452       .  S
C1212      C1213   1.419       .  A
C1213      C1214   1.412       .  A
C1213      C1216   1.453       .  S
C1214      C1217   1.452       .  S
C1215      N1222   1.158       .  T
C1216      N1221   1.158       .  T
C1217      N1219   1.157       .  T
C1218      N1220   1.157       .  T
C1223      C1224   1.411       .  A
C1223      C1228   1.409       .  A
C1224      C1225   1.414       .  A
C1224      C1229   1.449       .  S
C1225      C1226   1.413       .  A
C1225      C1232   1.449       .  S
C1226      C1227   1.414       .  A
C1227      C1228   1.404       .  A
C1227      C1230   1.454       .  S
C1228      C1231   1.452       .  S
C1229      N1236   1.157       .  T
C1230      N1235   1.157       .  T
C1231      N1233   1.157       .  T
C1232      N1234   1.157       .  T
C1237      C1238   1.413       .  A
C1237      C1242   1.413       .  A
C1238      C1239   1.414       .  A
C1238      C1243   1.450       .  S
C1239      C1240   1.411       .  A
C1239      C1246   1.449       .  S
C1240      C1241   1.410       .  A
C1241      C1242   1.403       .  A
C1241      C1244   1.452       .  S
C1242      C1245   1.454       .  S
C1243      N1250   1.157       .  T
C1244      N1249   1.157       .  T
C1245      N1247   1.157       .  T
C1246      N1248   1.157       .  T
C1251      C1252   1.422       .  A
C1252      C1253   1.415       .  A
C1252      C1257   1.454   1_565  S
C1253      C1254   1.420       .  A
C1253      C1260   1.453       .  S
C1255      C1256   1.415       .  A
C1255      C1258   1.454       .  S
C1256      C1259   1.453       .  S
C1257      N1264   1.158       .  T
C1258      N1263   1.158       .  T
C1259      N1261   1.158       .  T
C1260      N1262   1.158       .  T
C1265      C1266   1.419       .  A
C1266      C1267   1.413       .  A
C1266      C1271   1.453       .  S
C1267      C1268   1.413       .  A
C1267      C1274   1.452       .  S
C1270      C1273   1.452       .  S
C1271      N1278   1.158       .  T
C1272      N1277   1.158       .  T
C1273      N1275   1.158       .  T
C1274      N1276   1.158       .  T
C1279      C1280   1.415       .  A
C1280      C1281   1.414       .  A
C1280      C1285   1.450       .  S
C1281      C1288   1.451       .  S
C1282      C1283   1.408   1_455  A
C1283      C1284   1.405       .  A
C1283      C1286   1.449       .  S
C1284      C1287   1.455       .  S
C1285      N1292   1.157       .  T
C1286      N1291   1.156       .  T
C1287      N1289   1.158       .  T
C1288      N1290   1.157       .  T
C1293      C1294   1.411       .  A
C1294      C1295   1.414       .  A
C1294      C1299   1.450       .  S
C1295      C1296   1.414   1_655  A
C1295      C1302   1.450       .  S
C1297      C1298   1.403       .  A
C1297      C1300   1.455       .  S
C1298      C1301   1.450       .  S
C1299      N1306   1.157       .  T
C1300      N1305   1.158       .  T
C1301      N1303   1.156       .  T
C1302      N1304   1.157       .  T
C1307      C1308   1.420   1_455  A
C1308      C1309   1.411       .  A
C1308      C1313   1.452       .  S
C1309      C1310   1.416       .  A
C1309      C1316   1.454       .  S
C1311      C1312   1.413       .  A
C1311      C1314   1.452       .  S
C1312      C1315   1.454       .  S
C1313      N1320   1.158       .  T
C1314      N1319   1.158       .  T
C1315      N1317   1.158       .  T
C1316      N1318   1.158       .  T
