geometry optimzed in LAMMPS
_audit_creation_date              2020-11-30 
_audit_creation_method            'lammps2cif' 
_symmetry_space_group_name_H-M    'P1' 
_symmetry_Int_Tables_number       1 
_symmetry_cell_setting            triclinic 
loop_ 
_symmetry_equiv_pos_as_xyz 
  x,y,z 
_cell_length_a                    42.15698357891465 
_cell_length_b                    42.09094451805976 
_cell_length_c                    42.08336793246431 
_cell_angle_alpha                 89.94757827557095 
_cell_angle_beta                  89.94348151119439 
_cell_angle_gamma                 90.04880284070181 
loop_ 
_atom_site_label 
_atom_site_type_symbol 
_atom_site_fract_x 
_atom_site_fract_y 
_atom_site_fract_z 
_atom_site_charge 
N1          N  0.43350129  0.68047982  0.00132945    -0.27170
N2          N  0.45305737  0.65613159  0.00091046    -0.35030
C3          C  0.43675187  0.62905387  0.00063401     0.01170
C4          C  0.40480614  0.63602360  0.00087189     0.07190
C5          C  0.40333872  0.66914976  0.00133340    -0.05910
H6          H  0.44777888  0.60588714  0.00021751     0.07860
H7          H  0.38220441  0.68370430  0.00152337     0.09060
Cu8        Cu  0.50118859  0.65942741  0.00042644     0.44170
Cu9        Cu  0.45424697  0.72560714  0.00149739     0.41990
Cu10       Cu  0.54786441  0.72523958  0.99745008     0.43880
N11         N  0.54931101  0.65599761  0.99971266    -0.34560
N12         N  0.56882235  0.68037313  0.99848820    -0.28810
C13         C  0.59900912  0.66918405  0.99841028    -0.04920
C14         C  0.59761932  0.63608342  0.99964293     0.07300
C15         C  0.56567446  0.62899456  0.00043171     0.01100
H16         H  0.62009924  0.68381649  0.99756018     0.08750
H17         H  0.55468961  0.60580874  0.00147773     0.07830
N18         N  0.51699938  0.76418304  0.99862501    -0.36010
N19         N  0.48553356  0.76441512  0.00059249    -0.28190
C20         C  0.47566880  0.79477412  0.00154993    -0.03430
C21         C  0.50181145  0.81475048  0.00009137     0.05180
C22         C  0.52750699  0.79432662  0.99804420     0.03270
H23         H  0.45103585  0.80166793  0.00342669     0.08380
H24         H  0.55225843  0.80050064  0.99571955     0.07210
N25         N  0.66725590  0.58314872  0.00010942    -0.27170
N26         N  0.64306546  0.56341164  0.00105097    -0.35030
C27         C  0.61591443  0.57945168  0.00105822     0.01170
C28         C  0.62260448  0.61147108  0.00007740     0.07190
C29         C  0.65569743  0.61325535  0.99948948    -0.05910
H30         H  0.59288708  0.56816036  0.00159101     0.07830
H31         H  0.67005425  0.63454971  0.99859277     0.09060
Cu32       Cu  0.64653364  0.51540036  0.00162527     0.44170
Cu33       Cu  0.71229879  0.56224260  0.99965747     0.41990
Cu34       Cu  0.71120750  0.46811728  0.99750577     0.43880
N35         N  0.64216825  0.46745114  0.00052182    -0.34560
N36         N  0.66616408  0.44759417  0.99873188    -0.28810
C37         C  0.65446455  0.41756466  0.99812203    -0.04920
C38         C  0.62145209  0.41948263  0.99957919     0.07300
C39         C  0.61491341  0.45151760  0.00107051     0.01100
H40         H  0.66868305  0.39623558  0.99665003     0.08750
H41         H  0.59194914  0.46284411  0.00237190     0.07830
N42         N  0.75027483  0.49888401  0.99851240    -0.36010
N43         N  0.75074389  0.53046328  0.99953371    -0.28190
C44         C  0.78113830  0.54016417  0.00039446    -0.03430
C45         C  0.80080609  0.51381454  0.99997351     0.05180
C46         C  0.78029793  0.48815265  0.99859399     0.03270
H47         H  0.78831752  0.56481317  0.00151266     0.08380
H48         H  0.78644874  0.46328875  0.99710807     0.07210
N49         N  0.56795064  0.35039383  0.99902050    -0.27170
N50         N  0.54835157  0.37466676  0.00013877    -0.35030
C51         C  0.56458737  0.40178385  0.00041669     0.01170
C52         C  0.59652394  0.39484228  0.99945588     0.07190
C53         C  0.59806997  0.36175513  0.99856395    -0.05910
H54         H  0.55354185  0.42493224  0.00125700     0.07860
H55         H  0.61922009  0.34724660  0.99772172     0.09060
Cu56       Cu  0.50032865  0.37089020  0.00114673     0.44170
Cu57       Cu  0.54725449  0.30538746  0.99853795     0.41990
Cu58       Cu  0.45353000  0.30470030  0.99995267     0.43880
N59         N  0.45226576  0.37408833  0.00107655    -0.34560
N60         N  0.43270462  0.34972452  0.00046439    -0.28810
C61         C  0.40255626  0.36102896  0.00010760    -0.04920
C62         C  0.40406701  0.39415683  0.00047403     0.07300
C63         C  0.43600420  0.40114896  0.00111633     0.01100
H64         H  0.38141529  0.34646536  0.99941828     0.08750
H65         H  0.44706892  0.42431697  0.00143887     0.07830
N66         N  0.48491295  0.26604312  0.00002022    -0.36010
N67         N  0.51645384  0.26635232  0.99948826    -0.28190
C68         C  0.52699676  0.23622456  0.99978767    -0.03430
C69         C  0.50122507  0.21586944  0.00071979     0.05180
C70         C  0.47502167  0.23566577  0.00067661     0.03270
H71         H  0.55179837  0.22984654  0.99871836     0.08380
H72         H  0.45036235  0.22856905  0.00135871     0.07210
N73         N  0.33523873  0.58296183  0.00062818    -0.27170
N74         N  0.35935927  0.56319965  0.99945179    -0.35030
C75         C  0.38654436  0.57926889  0.99930254     0.01170
C76         C  0.37988037  0.61130543  0.00043176     0.07190
C77         C  0.34681610  0.61306303  0.00123994    -0.05910
H78         H  0.40956656  0.56801832  0.99851710     0.07860
H79         H  0.33248136  0.63433858  0.00230215     0.09060
Cu80       Cu  0.35537942  0.51513402  0.99857079     0.44170
Cu81       Cu  0.29020625  0.56219043  0.00124318     0.41990
Cu82       Cu  0.28970894  0.46806987  0.00048290     0.43880
N83         N  0.35890998  0.46703769  0.99899766    -0.34560
N84         N  0.33469999  0.44731881  0.99988550    -0.28810
C85         C  0.34615589  0.41718815  0.00038890    -0.04920
C86         C  0.37922477  0.41888875  0.99983196     0.07300
C87         C  0.38602115  0.45091018  0.99893129     0.01100
H88         H  0.33173717  0.39593609  0.00129326     0.08750
H89         H  0.40908673  0.46212449  0.99839688     0.07830
N90         N  0.25110044  0.49947812  0.00024382    -0.36010
N91         N  0.25130260  0.53108168  0.00051205    -0.28190
C92         C  0.22116389  0.54149694  0.00009856    -0.03430
C93         C  0.20094296  0.51558615  0.99937337     0.05180
C94         C  0.22081203  0.48943821  0.99966073     0.03270
H95         H  0.21467164  0.56631336  0.00093368     0.08380
H96         H  0.21382600  0.46470835  0.99916938     0.07210
N97         N  0.99984674  0.58274010  0.66557727    -0.27170
N98         N  0.00075735  0.56329887  0.64112052    -0.35030
C99         C  0.00079293  0.57978980  0.61413262     0.01170
C100        C  0.99984276  0.61174129  0.62127423     0.07190
C101        C  0.99926304  0.61300851  0.65441215    -0.05910
H102        H  0.00135780  0.56887576  0.59090424     0.07860
H103        H  0.99840719  0.63407838  0.66908413     0.09060
Cu104      Cu  0.00147888  0.51505494  0.64410297     0.44170
Cu105      Cu  0.99954300  0.56174629  0.71061010     0.41990
Cu106      Cu  0.00026413  0.46797653  0.70987116     0.43880
N107        N  0.00126196  0.46684602  0.64049928    -0.34560
N108        N  0.00074099  0.44722456  0.66484708    -0.28810
C109        C  0.00047642  0.41702805  0.65356687    -0.04920
C110        C  0.00077900  0.41851616  0.62044496     0.07300
C111        C  0.00129778  0.45053019  0.61342365     0.01100
H112        H  0.99990390  0.39586146  0.66815304     0.08750
H113        H  0.00161765  0.46157673  0.59023080     0.07830
N114        N  0.00055348  0.49871562  0.74900517    -0.36010
N115        N  0.00022532  0.53030974  0.74934126    -0.28190
C116        C  0.00054623  0.54015824  0.77974237    -0.03430
C117        C  0.00131478  0.51387219  0.79951387     0.05180
C118        C  0.00113524  0.48809650  0.77913787     0.03270
H119        H  0.00052601  0.56484064  0.78688508     0.08380
H120        H  0.00076657  0.46322605  0.78553563     0.07210
N121        N  0.00138114  0.68181724  0.43278814    -0.27170
N122        N  0.99980068  0.65762510  0.45252990    -0.35030
C123        C  0.99905395  0.63043964  0.43645537     0.01170
C124        C  0.00024161  0.63715549  0.40442338     0.07190
C125        C  0.00165431  0.67026683  0.40267100    -0.05910
H126        H  0.99786681  0.60737129  0.44769826     0.07860
H127        H  0.00304498  0.68463674  0.38139160     0.09060
Cu128      Cu  0.99928808  0.66144759  0.50057179     0.44170
Cu129      Cu  0.00300578  0.72687062  0.45369570     0.41990
Cu130      Cu  0.99746094  0.72686681  0.54775359     0.43880
N131        N  0.99909268  0.65753714  0.54861572    -0.34560
N132        N  0.99826868  0.68165305  0.56845271    -0.28810
C133        C  0.99840075  0.66995133  0.59853766    -0.04920
C134        C  0.99936111  0.63683234  0.59666571     0.07300
C135        C  0.99977840  0.63027246  0.56459387     0.01100
H136        H  0.99788742  0.68423851  0.61988370     0.08750
H137        H  0.00051117  0.60726331  0.55324280     0.07830
N138        N  0.99907921  0.76578009  0.51647847    -0.36010
N139        N  0.00224023  0.76573443  0.48498697    -0.28190
C140        C  0.00389851  0.79600214  0.47479490    -0.03430
C141        C  0.00129762  0.81596387  0.50067338     0.05180
C142        C  0.99806513  0.79609849  0.52658989     0.03270
H143        H  0.00617703  0.80296453  0.45014301     0.08380
H144        H  0.99568495  0.80315960  0.55119050     0.07210
N145        N  0.99990656  0.58349807  0.33531947    -0.27170
N146        N  0.00105435  0.56388839  0.35965412    -0.35030
C147        C  0.00149687  0.58019781  0.38672616     0.01170
C148        C  0.00059319  0.61220087  0.37973288     0.07190
C149        C  0.99964136  0.61369205  0.34661862    -0.05910
H150        H  0.00236987  0.56915080  0.40990320     0.07860
H151        H  0.99861874  0.63485631  0.33205734     0.09060
Cu152      Cu  0.00162014  0.51569603  0.35611673     0.44170
Cu153      Cu  0.99881012  0.56271421  0.29028795     0.41990
Cu154      Cu  0.00104737  0.46896922  0.28974332     0.43880
N155        N  0.00146610  0.46746729  0.35920568    -0.34560
N156        N  0.00115699  0.44799892  0.33475965    -0.28810
C157        C  0.00077238  0.41773508  0.34593340    -0.04920
C158        C  0.00083602  0.41903552  0.37906942     0.07300
C159        C  0.00129640  0.45099877  0.38620654     0.01100
H160        H  0.00033704  0.39664778  0.33126764     0.08750
H161        H  0.00137439  0.46192958  0.40943393     0.07830
N162        N  0.00068719  0.50031706  0.25096742    -0.36010
N163        N  0.99954478  0.53187878  0.25119461    -0.28190
C164        C  0.99935777  0.54238396  0.22101592    -0.03430
C165        C  0.00073063  0.51656672  0.20065495     0.05180
C166        C  0.00140491  0.49037891  0.22061478     0.03270
H167        H  0.99773710  0.56720144  0.21468738     0.08380
H168        H  0.00262018  0.46567437  0.21368019     0.07210
N169        N  0.99946674  0.34910284  0.43182688    -0.27170
N170        N  0.99934729  0.37321162  0.45168442    -0.35030
C171        C  0.99979473  0.40049950  0.43573541     0.01170
C172        C  0.00021439  0.39394695  0.40366299     0.07190
C173        C  0.99998917  0.36082068  0.40175722    -0.05910
H174        H  0.99984343  0.42351347  0.44710187     0.07860
H175        H  0.00026283  0.34654026  0.38040228     0.09060
Cu176      Cu  0.99888076  0.36918803  0.49970476     0.44170
Cu177      Cu  0.99911921  0.30390228  0.45250820     0.41990
Cu178      Cu  0.00265579  0.30369515  0.54665286     0.43880
N179        N  0.99946788  0.37298402  0.54773145    -0.34560
N180        N  0.00110489  0.34881159  0.56748990    -0.28810
C181        C  0.00158153  0.36041248  0.59758621    -0.04920
C182        C  0.00024144  0.39352562  0.59579557     0.07300
C183        C  0.99889146  0.40019390  0.56376901     0.01100
H184        H  0.00307479  0.34607613  0.61887670     0.08750
H185        H  0.99776071  0.42324769  0.55249728     0.07830
N186        N  0.00210769  0.26485057  0.51528684    -0.36010
N187        N  0.99984667  0.26493980  0.48371093    -0.28190
C188        C  0.99886776  0.23467714  0.47343632    -0.03430
C189        C  0.00104116  0.21477815  0.49935699     0.05180
C190        C  0.00314873  0.23451531  0.52539782     0.03270
H191        H  0.99717083  0.22769006  0.44876215     0.08380
H192        H  0.00488564  0.22735941  0.55003334     0.07210
N193        N  0.43364729  0.01401285  0.66563228    -0.27170
N194        N  0.45332574  0.01523690  0.64138866    -0.35030
C195        C  0.43720637  0.01563082  0.61422595     0.01170
C196        C  0.40523124  0.01459804  0.62104721     0.07190
C197        C  0.40356267  0.01357616  0.65416717    -0.05910
H198        H  0.44837147  0.01653697  0.59111277     0.07860
H199        H  0.38235088  0.01258246  0.66861867     0.09060
Cu200      Cu  0.50133392  0.01609362  0.64523077     0.44170
Cu201      Cu  0.45443017  0.01326115  0.71068938     0.41990
Cu202      Cu  0.54825631  0.01692961  0.71117993     0.43880
N203        N  0.54937656  0.01656335  0.64174567    -0.34560
N204        N  0.56902922  0.01694411  0.66600823    -0.28810
C205        C  0.59913948  0.01707719  0.65450667    -0.04920
C206        C  0.59750095  0.01675599  0.62136401     0.07300
C207        C  0.56552548  0.01643101  0.61457920     0.01100
H208        H  0.62034964  0.01734065  0.66894807     0.08750
H209        H  0.55435620  0.01609471  0.59147826     0.07830
N210        N  0.51688220  0.01554945  0.74997342    -0.36010
N211        N  0.48536465  0.01372574  0.74971834    -0.28190
C212        C  0.47489096  0.01268702  0.77989757    -0.03430
C213        C  0.50065511  0.01394996  0.80015225     0.05180
C214        C  0.52678693  0.01596735  0.78036554     0.03270
H215        H  0.45010941  0.01180956  0.78649213     0.08380
H216        H  0.55139515  0.01728669  0.78752154     0.07210
N217        N  0.66666855  0.01681877  0.56770875    -0.27170
N218        N  0.64236564  0.01651460  0.54811766    -0.35030
C219        C  0.61532062  0.01644175  0.56442999     0.01170
C220        C  0.62224741  0.01672896  0.59643766     0.07190
C221        C  0.65533183  0.01696418  0.59792253    -0.05910
H222        H  0.59220422  0.01619825  0.55335376     0.07860
H223        H  0.66984895  0.01719055  0.61910090     0.09060
Cu224      Cu  0.64566081  0.01617713  0.49993051     0.44170
Cu225      Cu  0.71169567  0.01677409  0.54681450     0.41990
Cu226      Cu  0.71119446  0.01432999  0.45289205     0.43880
N227        N  0.64194462  0.01563131  0.45177770    -0.34560
N228        N  0.66618556  0.01480294  0.43208933    -0.28810
C229        C  0.65478688  0.01441176  0.40192920    -0.04920
C230        C  0.62171289  0.01504706  0.40354055     0.07300
C231        C  0.61485323  0.01581806  0.43557621     0.01100
H232        H  0.66925508  0.01367055  0.38070139     0.08750
H233        H  0.59175642  0.01637274  0.44672937     0.07830
N234        N  0.75020745  0.01448179  0.48384041    -0.36010
N235        N  0.75043309  0.01569730  0.51543294    -0.28190
C236        C  0.78075205  0.01586565  0.52540264    -0.03430
C237        C  0.80056634  0.01439220  0.49922817     0.05180
C238        C  0.78035049  0.01367644  0.47336865     0.03270
H239        H  0.78783023  0.01667771  0.55009232     0.08380
H240        H  0.78691999  0.01332306  0.44853339     0.07210
N241        N  0.43316136  0.01758498  0.33409953    -0.27170
N242        N  0.45274210  0.01595613  0.35836095    -0.35030
C243        C  0.43651712  0.01525191  0.38548063     0.01170
C244        C  0.40456370  0.01652212  0.37864296     0.07190
C245        C  0.40302811  0.01795967  0.34552684    -0.05910
H246        H  0.44761353  0.01403842  0.40858848     0.07860
H247        H  0.38187838  0.01933880  0.33106053     0.09060
Cu248      Cu  0.50079452  0.01523945  0.35473612     0.44170
Cu249      Cu  0.45415328  0.01899521  0.28908591     0.41990
Cu250      Cu  0.54783203  0.01286808  0.28889172     0.43880
N251        N  0.54884406  0.01482215  0.35832450    -0.34560
N252        N  0.56852409  0.01377011  0.33406541    -0.28810
C253        C  0.59861768  0.01372509  0.34554508    -0.04920
C254        C  0.59695271  0.01480294  0.37867195     0.07300
C255        C  0.56497107  0.01548544  0.38547749     0.01100
H256        H  0.61983935  0.01296275  0.33109798     0.08750
H257        H  0.55379665  0.01635213  0.40858483     0.07830
N258        N  0.51668027  0.01453555  0.24998015    -0.36010
N259        N  0.48527838  0.01793665  0.25013313    -0.28190
C260        C  0.47504513  0.01959081  0.21990859    -0.03430
C261        C  0.50079680  0.01672138  0.19985784     0.05180
C262        C  0.52669744  0.01334043  0.21961292     0.03270
H263        H  0.45044472  0.02204749  0.21303500     0.08380
H264        H  0.55121117  0.01073816  0.21244381     0.07210
N265        N  0.33594786  0.01373068  0.56776229    -0.27170
N266        N  0.36013389  0.01518852  0.54804371    -0.35030
C267        C  0.38724932  0.01573962  0.56419063     0.01170
C268        C  0.38045182  0.01457429  0.59622278     0.07190
C269        C  0.34740074  0.01331417  0.59789595    -0.05910
H270        H  0.41031388  0.01685200  0.55300646     0.07860
H271        H  0.33298577  0.01215983  0.61914448     0.09060
Cu272      Cu  0.35626982  0.01615062  0.49994379     0.44170
Cu273      Cu  0.29094473  0.01275846  0.54700470     0.41990
Cu274      Cu  0.29019992  0.01680151  0.45312934     0.43880
N275        N  0.35955885  0.01660595  0.45179337    -0.34560
N276        N  0.33526826  0.01690252  0.43218723    -0.28810
C277        C  0.34665733  0.01701937  0.40198463    -0.04920
C278        C  0.37975156  0.01673527  0.40351280     0.07300
C279        C  0.38662560  0.01649154  0.43552336     0.01100
H280        H  0.33217236  0.01717142  0.38078345     0.08750
H281        H  0.40972519  0.01623630  0.44663471     0.07830
N282        N  0.25150863  0.01583682  0.48467039    -0.36010
N283        N  0.25185193  0.01394738  0.51620403    -0.28190
C284        C  0.22176740  0.01339676  0.52682819    -0.03430
C285        C  0.20126482  0.01535709  0.50115298     0.05180
C286        C  0.22114564  0.01674324  0.47489774     0.03270
H287        H  0.21566206  0.01114596  0.55164709     0.08380
H288        H  0.21416968  0.01854643  0.45024334     0.07210
O289        O  0.00164846  0.96777568  0.47339610    -0.72830
O290        O  0.99937548  0.06316011  0.47320728    -0.73810
O291        O  0.04811871  0.01627349  0.47313390    -0.62430
O292        O  0.95288680  0.01432249  0.47350891    -0.70840
O293        O  0.95300219  0.01721098  0.52614307    -0.70390
O294        O  0.04820113  0.01458019  0.52575851    -0.61640
O295        O  0.00205975  0.06337382  0.52594152    -0.74150
O296        O  0.99897600  0.96806078  0.52610580    -0.72930
Cu297      Cu  0.00050217  0.01540422  0.47145858     1.04560
Cu298      Cu  0.00057754  0.01578605  0.52783237     1.04330
C299        C  0.00019308  0.95292068  0.49982896     0.93370
C300        C  0.00071378  0.07821164  0.49951906     0.92510
C301        C  0.06329430  0.01533221  0.49939177     0.84650
C302        C  0.93788700  0.01586724  0.49987437     0.90930
O303        O  0.47337699  0.96791356  0.00092310    -0.72830
O304        O  0.47357884  0.06310627  0.99904437    -0.73810
O305        O  0.47387246  0.01449242  0.95240086    -0.62430
O306        O  0.47315674  0.01664440  0.04785817    -0.70840
O307        O  0.52577835  0.01405229  0.04810024    -0.70390
O308        O  0.52645679  0.01679455  0.95285046    -0.61640
O309        O  0.52609979  0.06312469  0.00167032    -0.74150
O310        O  0.52592025  0.96787439  0.99951731    -0.72930
Cu311      Cu  0.47165171  0.01554136  0.00006316     1.04560
Cu312      Cu  0.52789860  0.01546951  0.00053816     1.04330
C313        C  0.49961236  0.95275845  0.00015955     0.93370
C314        C  0.49983670  0.07821985  0.00026636     0.92510
C315        C  0.50030833  0.01572787  0.93756349     0.84650
C316        C  0.49939383  0.01522623  0.06296913     0.90930
O317        O  0.00139160  0.48821298  0.95224354    -0.72830
O318        O  0.00018983  0.48804503  0.04761599    -0.73810
O319        O  0.95325233  0.48839917  0.99961369    -0.62430
O320        O  0.04833167  0.48781570  0.00056998    -0.70840
O321        O  0.04861378  0.54047722  0.99922458    -0.70390
O322        O  0.95357098  0.54106222  0.00017156    -0.61640
O323        O  0.00154486  0.54067168  0.04750306    -0.74150
O324        O  0.00045951  0.54089200  0.95223302    -0.72930
Cu325      Cu  0.00078448  0.48627975  0.99999152     1.04560
Cu326      Cu  0.00107844  0.54260211  0.99980645     1.04330
C327        C  0.00078849  0.51458049  0.93714673     0.93370
C328        C  0.00076156  0.51436381  0.06269902     0.92510
C329        C  0.93833464  0.51482105  0.99981094     0.84650
C330        C  0.06354174  0.51407166  0.99995210     0.90930
C331        C  0.09852206  0.01528648  0.49947506    -0.05350
C332        C  0.11483036  0.02347837  0.52736368    -0.32780
C333        C  0.14804702  0.02372590  0.52840896     0.36470
C334        C  0.16587504  0.01542069  0.50119620    -0.05710
C335        C  0.14945312  0.00719542  0.47329744    -0.32680
C336        C  0.11624763  0.00729485  0.47219186     0.36380
H337        H  0.10180045  0.03022674  0.54850868     0.16750
O338        O  0.16261655  0.03360043  0.55578112    -0.60180
H339        H  0.16228071  0.00028674  0.45212261     0.16760
O340        O  0.10146306  0.99849697  0.44454265    -0.60270
H341        H  0.10111828  0.01796562  0.43124755     0.43760
H342        H  0.16015122  0.01572459  0.57097125     0.43710
C343        C  0.49935424  0.01512554  0.09791525    -0.05350
C344        C  0.48303589  0.03895078  0.11445689    -0.32780
C345        C  0.48377073  0.03998116  0.14769955     0.36470
C346        C  0.50051849  0.01662907  0.16481232    -0.05710
C347        C  0.51682843  0.99278555  0.14822762    -0.32680
C348        C  0.51612829  0.99179136  0.11497981     0.36380
H349        H  0.47032716  0.05721642  0.10153136     0.16750
O350        O  0.46874140  0.06435115  0.16321094    -0.60180
H351        H  0.52961464  0.97455298  0.16111551     0.16760
O352        O  0.53139424  0.96761161  0.09938275    -0.60270
H353        H  0.51489165  0.95120799  0.09571332     0.43760
H354        H  0.48526143  0.08086303  0.16625665     0.43710
C355        C  0.83573914  0.01453337  0.49913092    -0.05350
C356        C  0.85213925  0.03125090  0.52287659    -0.32780
C357        C  0.88534993  0.03191536  0.52342702     0.36470
C358        C  0.90281342  0.01576584  0.49989673    -0.05710
C359        C  0.88646566  0.99903869  0.47617251    -0.32680
C360        C  0.85324786  0.99822994  0.47569498     0.36380
H361        H  0.83919002  0.04429546  0.54087004     0.16750
O362        O  0.90045782  0.04958570  0.54623369    -0.60180
H363        H  0.89949209  0.98601076  0.45820645     0.16760
O364        O  0.83822587  0.98002595  0.45325608    -0.60270
H365        H  0.84047947  0.99192501  0.43302328     0.43760
H366        H  0.90091458  0.03586189  0.56539583     0.43710
C367        C  0.50041622  0.01410280  0.83534787    -0.05350
C368        C  0.52296899  0.03228830  0.85184374    -0.32780
C369        C  0.52319889  0.03307703  0.88511522     0.36470
C370        C  0.50057202  0.01555620  0.90247471    -0.05710
C371        C  0.47805376  0.99735400  0.88603346    -0.32680
C372        C  0.47790584  0.99641997  0.85276388     0.36380
H373        H  0.54020614  0.04637145  0.83890978     0.16750
O374        O  0.54468112  0.05219616  0.90039118    -0.60180
H375        H  0.46084064  0.98328928  0.89903995     0.16760
O376        O  0.45678791  0.97681634  0.83759132    -0.60270
H377        H  0.43590089  0.98746013  0.83956041     0.43760
H378        H  0.56461035  0.03972132  0.90110163     0.43710
C379        C  0.00063990  0.11306454  0.49942765    -0.05350
C380        C  0.02817434  0.12963457  0.50801669    -0.32780
C381        C  0.02860448  0.16289850  0.50778044     0.36470
C382        C  0.00115733  0.17984923  0.49925152    -0.05710
C383        C  0.97361433  0.16325941  0.49066585    -0.32680
C384        C  0.97316454  0.12998921  0.49096710     0.36380
H385        H  0.04944260  0.11673740  0.51452307     0.16750
O386        O  0.05601145  0.17865397  0.51553529    -0.60180
H387        H  0.95233709  0.17614996  0.48419117     0.16760
O388        O  0.94572609  0.11420787  0.48333907    -0.60270
H389        H  0.93507639  0.10998452  0.50394863     0.43760
H390        H  0.06709666  0.18220356  0.49503351     0.43710
C391        C  0.00067680  0.51456437  0.09793857    -0.05350
C392        C  0.01108561  0.54176285  0.11417050    -0.32780
C393        C  0.01134797  0.54287126  0.14742813     0.36470
C394        C  0.00083744  0.51645951  0.16529348    -0.05710
C395        C  0.99041226  0.48924911  0.14898339    -0.32680
C396        C  0.99044142  0.48805741  0.11573954     0.36380
H397        H  0.01956802  0.56224348  0.10105112     0.16750
O398        O  0.02343126  0.56933718  0.16204591    -0.60180
H399        H  0.98180256  0.46876211  0.16195794     0.16760
O400        O  0.97935546  0.46121173  0.10098595    -0.60270
H401        H  0.99756462  0.44630784  0.10073653     0.43760
H402        H  0.00702783  0.58601053  0.15937364     0.43710
C403        C  0.00133432  0.85102581  0.50056840    -0.05350
C404        C  0.97826332  0.86759135  0.51798316    -0.32780
C405        C  0.97741093  0.90085011  0.51757525     0.36470
C406        C  0.00015078  0.91795855  0.50000135    -0.05710
C407        C  0.02320344  0.90143204  0.48258452    -0.32680
C408        C  0.02408426  0.86818796  0.48300843     0.36380
H409        H  0.96047353  0.85468528  0.53139726     0.16750
O410        O  0.95385543  0.91640228  0.53381174    -0.60180
H411        H  0.04097371  0.91437036  0.46916533     0.16760
O412        O  0.04773182  0.85272594  0.46683400    -0.60270
H413        H  0.06485264  0.84946652  0.48265332     0.43760
H414        H  0.93690402  0.92017114  0.51791782     0.43710
C415        C  0.00137447  0.51368116  0.83477452    -0.05350
C416        C  0.98690165  0.53877110  0.85131799    -0.32780
C417        C  0.98656243  0.53942615  0.88457240     0.36470
C418        C  0.00068391  0.51457845  0.90199945    -0.05710
C419        C  0.01511562  0.48947443  0.88552895    -0.32680
C420        C  0.01567108  0.48891477  0.85225330     0.36380
H421        H  0.97536679  0.55783345  0.83847158     0.16750
O422        O  0.97117995  0.56379207  0.89975370    -0.60180
H423        H  0.02657515  0.47042548  0.89849357     0.16760
O424        O  0.03173131  0.46493682  0.83717539    -0.60270
H425        H  0.01820107  0.44580145  0.83965947     0.43760
H426        H  0.98655282  0.58163770  0.90000661     0.43710
C427        C  0.16573961  0.51547946  0.99921087    -0.05350
C428        C  0.14934380  0.48967072  0.01266039    -0.32780
C429        C  0.11615278  0.48874797  0.01293768     0.36470
C430        C  0.09863278  0.51406877  0.99983591    -0.05710
C431        C  0.11496605  0.53981763  0.98631179    -0.32680
C432        C  0.14816282  0.54064683  0.98580001     0.36380
H433        H  0.16224594  0.47023435  0.02347073     0.16750
O434        O  0.10114399  0.46360153  0.02727709    -0.60180
H435        H  0.10195865  0.55925108  0.97558099     0.16760
O436        O  0.16306294  0.56537271  0.97065359    -0.60270
H437        H  0.16041059  0.58394343  0.98490636     0.43760
H438        H  0.10082997  0.44652854  0.01105162     0.43710
C439        C  0.49993410  0.11338778  0.00023974    -0.05350
C440        C  0.52580609  0.12976228  0.01336549    -0.32780
C441        C  0.52661509  0.16301979  0.01382235     0.36470
C442        C  0.50127555  0.18061423  0.00080291    -0.05710
C443        C  0.47540363  0.16418448  0.98767767    -0.32680
C444        C  0.47451286  0.13095432  0.98742163     0.36380
H445        H  0.54535379  0.11675012  0.02383372     0.16750
O446        O  0.55151482  0.17794962  0.02853550    -0.60180
H447        H  0.45585389  0.17709253  0.97712614     0.16760
O448        O  0.44922114  0.11596149  0.97344499    -0.60270
H449        H  0.43235115  0.11569353  0.98988550     0.43760
H450        H  0.56982231  0.17538406  0.01393960     0.43710
C451        C  0.83606199  0.51360865  0.00011126    -0.05350
C452        C  0.85261329  0.54033997  0.98881799    -0.32780
C453        C  0.88579250  0.54121477  0.98876388     0.36470
C454        C  0.90322732  0.51487019  0.99979634    -0.05710
C455        C  0.88677800  0.48813235  0.01106919    -0.32680
C456        C  0.85357290  0.48734682  0.01142147     0.36380
H457        H  0.83986700  0.56065512  0.97957014     0.16750
O458        O  0.90086519  0.56749907  0.97672118    -0.60180
H459        H  0.89969179  0.46782811  0.02017676     0.16760
O460        O  0.83864976  0.46142840  0.02437738    -0.60270
H461        H  0.84122749  0.44417704  0.00853761     0.43760
H462        H  0.90114100  0.58308609  0.99438167     0.43710
C463        C  0.50173618  0.85015274  0.00018857    -0.05350
C464        C  0.47375645  0.86648701  0.99218959    -0.32780
C465        C  0.47253181  0.89971832  0.99232463     0.36470
C466        C  0.49976197  0.91752860  0.00016230    -0.05710
C467        C  0.52771885  0.90131159  0.00815385    -0.32680
C468        C  0.52891001  0.86807614  0.00829355     0.36380
H469        H  0.45261774  0.85357845  0.98540760     0.16750
O470        O  0.44482505  0.91443962  0.98370298    -0.60180
H471        H  0.54883231  0.91442407  0.01476098     0.16760
O472        O  0.55642234  0.85358843  0.01779846    -0.60270
H473        H  0.57136461  0.85619648  0.99975274     0.43760
H474        H  0.43168357  0.91476142  0.00326263     0.43710
loop_ 
_geom_bond_atom_site_label_1 
_geom_bond_atom_site_label_2 
_geom_bond_distance 
_geom_bond_site_symmetry_2 
_ccdc_geom_bond_type 
N1            N2   1.316       .  A
N1            C5   1.358       .  A
N1           Cu9   2.090       .  S
N2            C3   1.331       .  A
N2           Cu8   2.034       .  S
C3            C4   1.379       .  A
C3            H6   1.081       .  S
C4            C5   1.396       .  A
C4           C76   1.478       .  S
C5            H7   1.082       .  S
Cu8          N11   2.034   1_554  S
Cu9          N19   2.099       .  S
Cu10         N12   2.086       .  S
Cu10         N18   2.094       .  S
N11          N12   1.315       .  A
N11          C15   1.330   1_556  A
N12          C13   1.357       .  A
C13          C14   1.395       .  A
C13          H16   1.082       .  S
C14          C15   1.379   1_556  A
C14          C28   1.478   1_556  S
C15          H17   1.081       .  S
N18          N19   1.329   1_556  A
N18          C22   1.344       .  A
N19          C20   1.345       .  A
C20          C21   1.387       .  A
C20          H23   1.081       .  S
C21          C22   1.386   1_554  A
C21         C463   1.490       .  S
C22          H24   1.079       .  S
N25          N26   1.315       .  A
N25          C29   1.358   1_554  A
N25         Cu33   2.094   1_554  S
N26          C27   1.329       .  A
N26         Cu32   2.026       .  S
C27          C28   1.377       .  A
C27          H30   1.081       .  S
C28          C29   1.397   1_554  A
C29          H31   1.082       .  S
Cu32         N35   2.027       .  S
Cu33         N43   2.102       .  S
Cu34         N36   2.086       .  S
Cu34         N42   2.095       .  S
N35          N36   1.315   1_554  A
N35          C39   1.330       .  A
N36          C37   1.357       .  A
C37          C38   1.395       .  A
C37          H40   1.082       .  S
C38          C39   1.378   1_556  A
C38          C52   1.476       .  S
C39          H41   1.081       .  S
N42          N43   1.330       .  A
N42          C46   1.344       .  A
N43          C44   1.345   1_556  A
C44          C45   1.385   1_554  A
C44          H47   1.082       .  S
C45          C46   1.384       .  A
C45         C451   1.486   1_556  S
C46          H48   1.080       .  S
N49          N50   1.315   1_556  A
N49          C53   1.357       .  A
N49         Cu57   2.085       .  S
N50          C51   1.330       .  A
N50         Cu56   2.031       .  S
C51          C52   1.378   1_554  A
C51          H54   1.081       .  S
C52          C53   1.395       .  A
C53          H55   1.082       .  S
Cu56         N59   2.031       .  S
Cu57         N67   2.094       .  S
Cu58         N60   2.089   1_556  S
Cu58         N66   2.098   1_556  S
N59          N60   1.316       .  A
N59          C63   1.330       .  A
N60          C61   1.358       .  A
C61          C62   1.396       .  A
C61          H64   1.082   1_554  S
C62          C63   1.378       .  A
C62          C86   1.478   1_554  S
C63          H65   1.081       .  S
N66          N67   1.330   1_554  A
N66          C70   1.345       .  A
N67          C68   1.344       .  A
C68          C69   1.384   1_556  A
C68          H71   1.081       .  S
C69          C70   1.384       .  A
C69         C442   1.484       .  S
C70          H72   1.082       .  S
N73          N74   1.315   1_554  A
N73          C77   1.358       .  A
N73         Cu81   2.090       .  S
N74          C75   1.330       .  A
N74         Cu80   2.030       .  S
C75          C76   1.378   1_556  A
C75          H78   1.081       .  S
C76          C77   1.396       .  A
C77          H79   1.082       .  S
Cu80         N83   2.030       .  S
Cu81         N91   2.098       .  S
Cu82         N84   2.089   1_554  S
Cu82         N90   2.098       .  S
N83          N84   1.315       .  A
N83          C87   1.330       .  A
N84          C85   1.358   1_556  A
C85          C86   1.396   1_554  A
C85          H88   1.082       .  S
C86          C87   1.378       .  A
C87          H89   1.081       .  S
N90          N91   1.330       .  A
N90          C94   1.345   1_554  A
N91          C92   1.345       .  A
C92          C93   1.384   1_554  A
C92          H95   1.081       .  S
C93          C94   1.384       .  A
C93         C427   1.484       .  S
C94          H96   1.082       .  S
N97          N98   1.316   1_655  A
N97         C101   1.358       .  A
N97        Cu105   2.090       .  S
N98          C99   1.331       .  A
N98        Cu104   2.035       .  S
C99         C100   1.379   1_455  A
C99         H102   1.081       .  S
C100        C101   1.396       .  A
C100        C134   1.479       .  S
C101        H103   1.082       .  S
Cu104       N107   2.035       .  S
Cu105       N115   2.099   1_655  S
Cu106       N108   2.087       .  S
Cu106       N114   2.095       .  S
N107        N108   1.316       .  A
N107        C111   1.331       .  A
N108        C109   1.357       .  A
C109        C110   1.395       .  A
C109        H112   1.082   1_455  S
C110        C111   1.379       .  A
C110        C182   1.478       .  S
C111        H113   1.081       .  S
N114        N115   1.330       .  A
N114        C118   1.344       .  A
N115        C116   1.345       .  A
C116        C117   1.384       .  A
C116        H119   1.082       .  S
C117        C118   1.384       .  A
C117        C415   1.484       .  S
C118        H120   1.081       .  S
N121        N122   1.315   1_455  A
N121        C125   1.358       .  A
N121       Cu129   2.092       .  S
N122        C123   1.330       .  A
N122       Cu128   2.028       .  S
C123        C124   1.378   1_655  A
C123        H126   1.081       .  S
C124        C125   1.397       .  A
C124        C148   1.478       .  S
C125        H127   1.082       .  S
Cu128       N131   2.028       .  S
Cu129       N139   2.101       .  S
Cu130       N132   2.093       .  S
Cu130       N138   2.101       .  S
N131        N132   1.315       .  A
N131        C135   1.330       .  A
N132        C133   1.358       .  A
C133        C134   1.397       .  A
C133        H136   1.082       .  S
C134        C135   1.378       .  A
C135        H137   1.081   1_655  S
N138        N139   1.332   1_655  A
N138        C142   1.346       .  A
N139        C140   1.346       .  A
C140        C141   1.380       .  A
C140        H143   1.082       .  S
C141        C142   1.380   1_455  A
C141        C403   1.476       .  S
C142        H144   1.082       .  S
N145        N146   1.316   1_655  A
N145        C149   1.357       .  A
N145       Cu153   2.089       .  S
N146        C147   1.331       .  A
N146       Cu152   2.034       .  S
C147        C148   1.379       .  A
C147        H150   1.081       .  S
C148        C149   1.396   1_455  A
C149        H151   1.082       .  S
Cu152       N155   2.034       .  S
Cu153       N163   2.097       .  S
Cu154       N156   2.089       .  S
Cu154       N162   2.098       .  S
N155        N156   1.316       .  A
N155        C159   1.330       .  A
N156        C157   1.358       .  A
C157        C158   1.396       .  A
C157        H160   1.082       .  S
C158        C159   1.379       .  A
C158        C172   1.478       .  S
C159        H161   1.081       .  S
N162        N163   1.329   1_455  A
N162        C166   1.345       .  A
N163        C164   1.344       .  A
C164        C165   1.386   1_655  A
C164        H167   1.080       .  S
C165        C166   1.386       .  A
C165        C394   1.488       .  S
C166        H168   1.082       .  S
N169        N170   1.315       .  A
N169        C173   1.358       .  A
N169       Cu177   2.091       .  S
N170        C171   1.330       .  A
N170       Cu176   2.028       .  S
C171        C172   1.378   1_655  A
C171        H174   1.081       .  S
C172        C173   1.397   1_455  A
C173        H175   1.082   1_655  S
Cu176       N179   2.028       .  S
Cu177       N187   2.100       .  S
Cu178       N180   2.093       .  S
Cu178       N186   2.102       .  S
N179        N180   1.315   1_655  A
N179        C183   1.330       .  A
N180        C181   1.358       .  A
C181        C182   1.397       .  A
C181        H184   1.082       .  S
C182        C183   1.378   1_455  A
C183        H185   1.081       .  S
N186        N187   1.332   1_455  A
N186        C190   1.346       .  A
N187        C188   1.346       .  A
C188        C189   1.378   1_655  A
C188        H191   1.082       .  S
C189        C190   1.379       .  A
C189        C382   1.470       .  S
C190        H192   1.082       .  S
N193        N194   1.315       .  A
N193        C197   1.358       .  A
N193       Cu201   2.090       .  S
N194        C195   1.331       .  A
N194       Cu200   2.031       .  S
C195        C196   1.379       .  A
C195        H198   1.081       .  S
C196        C197   1.396       .  A
C196        C268   1.478       .  S
C197        H199   1.082       .  S
Cu200       N203   2.031       .  S
Cu201       N211   2.098       .  S
Cu202       N204   2.092       .  S
Cu202       N210   2.101       .  S
N203        N204   1.316       .  A
N203        C207   1.330       .  A
N204        C205   1.358       .  A
C205        C206   1.397       .  A
C205        H208   1.082       .  S
C206        C207   1.378       .  A
C206        C220   1.479       .  S
C207        H209   1.081       .  S
N210        N211   1.331       .  A
N210        C214   1.346       .  A
N211        C212   1.345       .  A
C212        C213   1.382       .  A
C212        H215   1.081       .  S
C213        C214   1.383       .  A
C213        C367   1.481       .  S
C214        H216   1.082       .  S
N217        N218   1.316       .  A
N217        C221   1.358       .  A
N217       Cu225   2.091       .  S
N218        C219   1.330       .  A
N218       Cu224   2.033       .  S
C219        C220   1.379       .  A
C219        H222   1.081       .  S
C220        C221   1.396       .  A
C221        H223   1.082       .  S
Cu224       N227   2.033       .  S
Cu225       N235   2.100       .  S
Cu226       N228   2.091       .  S
Cu226       N234   2.099       .  S
N227        N228   1.315       .  A
N227        C231   1.331       .  A
N228        C229   1.358       .  A
C229        C230   1.396       .  A
C229        H232   1.082       .  S
C230        C231   1.379       .  A
C230        C254   1.479       .  S
C231        H233   1.081       .  S
N234        N235   1.331       .  A
N234        C238   1.345       .  A
N235        C236   1.346       .  A
C236        C237   1.383       .  A
C236        H239   1.082       .  S
C237        C238   1.383       .  A
C237        C355   1.483       .  S
C238        H240   1.081       .  S
N241        N242   1.315       .  A
N241        C245   1.358       .  A
N241       Cu249   2.091       .  S
N242        C243   1.330       .  A
N242       Cu248   2.032       .  S
C243        C244   1.379       .  A
C243        H246   1.081       .  S
C244        C245   1.396       .  A
C244        C278   1.479       .  S
C245        H247   1.082       .  S
Cu248       N251   2.031       .  S
Cu249       N259   2.099       .  S
Cu250       N252   2.093       .  S
Cu250       N258   2.101       .  S
N251        N252   1.316       .  A
N251        C255   1.331       .  A
N252        C253   1.358       .  A
C253        C254   1.397       .  A
C253        H256   1.082       .  S
C254        C255   1.378       .  A
C255        H257   1.081       .  S
N258        N259   1.332       .  A
N258        C262   1.347       .  A
N259        C260   1.345       .  A
C260        C261   1.380       .  A
C260        H263   1.082       .  S
C261        C262   1.380       .  A
C261        C346   1.475       .  S
C262        H264   1.082       .  S
N265        N266   1.315       .  A
N265        C269   1.357       .  A
N265       Cu273   2.090       .  S
N266        C267   1.331       .  A
N266       Cu272   2.031       .  S
C267        C268   1.379       .  A
C267        H270   1.081       .  S
C268        C269   1.396       .  A
C269        H271   1.082       .  S
Cu272       N275   2.031       .  S
Cu273       N283   2.098       .  S
Cu274       N276   2.094       .  S
Cu274       N282   2.102       .  S
N275        N276   1.316       .  A
N275        C279   1.330       .  A
N276        C277   1.358       .  A
C277        C278   1.397       .  A
C277        H280   1.082       .  S
C278        C279   1.378       .  A
C279        H281   1.081       .  S
N282        N283   1.329       .  A
N282        C286   1.345       .  A
N283        C284   1.345       .  A
C284        C285   1.387       .  A
C284        H287   1.080       .  S
C285        C286   1.387       .  A
C285        C334   1.492       .  S
C286        H288   1.081       .  S
O289       Cu297   2.007   1_565  S
O289        C299   1.277       .  A
O290       Cu297   2.012   1_655  S
O290        C300   1.277   1_655  A
O291       Cu297   2.009       .  S
O291        C301   1.278       .  A
O292       Cu297   2.010   1_655  S
O292        C302   1.278       .  A
O293       Cu298   2.008   1_655  S
O293        C302   1.278       .  A
O294       Cu298   2.010       .  S
O294        C301   1.279       .  A
O295       Cu298   2.005       .  S
O295        C300   1.276       .  A
O296       Cu298   2.011   1_665  S
O296        C299   1.278   1_655  A
Cu297      Cu298   2.372       .  S
C299        C406   1.472       .  S
C300        C379   1.467       .  S
C301        C331   1.485       .  S
C302        C358   1.479       .  S
O303       Cu311   2.006   1_565  S
O303        C313   1.278       .  A
O304       Cu311   2.004   1_556  S
O304        C314   1.277   1_556  A
O305       Cu311   2.008   1_556  S
O305        C315   1.278       .  A
O306       Cu311   2.013       .  S
O306        C316   1.278       .  A
O307       Cu312   2.004       .  S
O307        C316   1.277       .  A
O308       Cu312   2.009   1_556  S
O308        C315   1.278       .  A
O309       Cu312   2.008       .  S
O309        C314   1.278       .  A
O310       Cu312   2.005   1_566  S
O310        C313   1.278   1_556  A
Cu311      Cu312   2.371       .  S
C313        C466   1.483       .  S
C314        C439   1.480       .  S
C315        C370   1.477       .  S
C316        C343   1.471       .  S
O317       Cu325   2.011       .  S
O317        C327   1.279       .  A
O318       Cu325   2.006   1_554  S
O318        C328   1.277       .  A
O319       Cu325   2.006   1_655  S
O319        C329   1.278       .  A
O320       Cu325   2.006   1_554  S
O320        C330   1.277   1_554  A
O321       Cu326   2.006       .  S
O321        C330   1.278       .  A
O322       Cu326   2.004   1_654  S
O322        C329   1.277   1_554  A
O323       Cu326   2.009   1_554  S
O323        C328   1.279       .  A
O324       Cu326   2.004       .  S
O324        C327   1.277       .  A
Cu325      Cu326   2.371       .  S
C327        C418   1.479       .  S
C328        C391   1.483       .  S
C329        C454   1.480       .  S
C330        C430   1.479       .  S
C331        C332   1.404       .  A
C331        C336   1.410       .  A
C332        C333   1.401       .  A
C332        H337   1.084       .  S
C333        C334   1.414       .  A
C333        O338   1.371       .  S
C334        C335   1.407       .  A
C335        C336   1.401       .  A
C335        H339   1.082       .  S
C336        O340   1.372   1_545  S
O338        H342   0.992       .  S
O340        H341   0.992   1_565  S
C343        C344   1.402       .  A
C343        C348   1.408   1_545  A
C344        C345   1.400       .  A
C344        H349   1.084       .  S
C345        C346   1.409       .  A
C345        O350   1.372       .  S
C346        C347   1.403   1_545  A
C347        C348   1.400       .  A
C347        H351   1.084       .  S
C348        O352   1.372       .  S
O350        H354   0.992       .  S
O352        H353   0.992       .  S
C355        C356   1.405       .  A
C355        C360   1.410   1_545  A
C356        C357   1.401       .  A
C356        H361   1.083       .  S
C357        C358   1.409       .  A
C357        O362   1.372       .  S
C358        C359   1.403   1_545  A
C359        C360   1.401       .  A
C359        H363   1.084       .  S
C360        O364   1.372       .  S
O362        H366   0.992       .  S
O364        H365   0.992       .  S
C367        C368   1.405       .  A
C367        C372   1.410   1_545  A
C368        C369   1.401       .  A
C368        H373   1.083       .  S
C369        C370   1.409       .  A
C369        O374   1.372       .  S
C370        C371   1.403   1_545  A
C371        C372   1.401       .  A
C371        H375   1.084       .  S
C372        O376   1.372       .  S
O374        H378   0.992       .  S
O376        H377   0.992       .  S
C379        C380   1.402       .  A
C379        C384   1.406   1_455  A
C380        C381   1.400       .  A
C380        H385   1.084       .  S
C381        C382   1.407       .  A
C381        O386   1.372       .  S
C382        C383   1.402   1_455  A
C383        C384   1.401       .  A
C383        H387   1.084       .  S
C384        O388   1.372       .  S
O386        H390   0.992       .  S
O388        H389   0.992       .  S
C391        C392   1.404       .  A
C391        C396   1.410   1_455  A
C392        C393   1.400       .  A
C392        H397   1.084       .  S
C393        C394   1.412       .  A
C393        O398   1.371       .  S
C394        C395   1.406   1_455  A
C395        C396   1.400       .  A
C395        H399   1.082       .  S
C396        O400   1.372       .  S
O398        H402   0.992       .  S
O400        H401   0.992       .  S
C403        C404   1.404   1_455  A
C403        C408   1.409       .  A
C404        C405   1.400       .  A
C404        H409   1.084       .  S
C405        C406   1.407   1_655  A
C405        O410   1.372       .  S
C406        C407   1.402       .  A
C407        C408   1.400       .  A
C407        H411   1.084       .  S
C408        O412   1.372       .  S
O410        H414   0.992       .  S
O412        H413   0.992       .  S
C415        C416   1.405   1_455  A
C415        C420   1.411       .  A
C416        C417   1.400       .  A
C416        H421   1.083       .  S
C417        C418   1.409   1_655  A
C417        O422   1.372       .  S
C418        C419   1.403       .  A
C419        C420   1.401       .  A
C419        H423   1.084       .  S
C420        O424   1.372       .  S
O422        H426   0.992       .  S
O424        H425   0.992       .  S
C427        C428   1.405   1_556  A
C427        C432   1.411       .  A
C428        C429   1.400       .  A
C428        H433   1.083       .  S
C429        C430   1.409   1_554  A
C429        O434   1.372       .  S
C430        C431   1.403       .  A
C431        C432   1.400       .  A
C431        H435   1.084       .  S
C432        O436   1.371       .  S
O434        H438   0.992       .  S
O436        H437   0.992       .  S
C439        C440   1.404       .  A
C439        C444   1.410   1_554  A
C440        C441   1.400       .  A
C440        H445   1.084       .  S
C441        C442   1.411       .  A
C441        O446   1.372       .  S
C442        C443   1.405   1_554  A
C443        C444   1.399       .  A
C443        H447   1.083       .  S
C444        O448   1.372       .  S
O446        H450   0.992       .  S
O448        H449   0.992       .  S
C451        C452   1.406   1_554  A
C451        C456   1.412       .  A
C452        C453   1.399       .  A
C452        H457   1.083       .  S
C453        C454   1.409       .  A
C453        O458   1.372       .  S
C454        C455   1.403   1_556  A
C455        C456   1.400       .  A
C455        H459   1.084       .  S
C456        O460   1.371       .  S
O458        H462   0.992       .  S
O460        H461   0.992       .  S
C463        C464   1.407   1_554  A
C463        C468   1.413       .  A
C464        C465   1.400       .  A
C464        H469   1.082       .  S
C465        C466   1.410   1_556  A
C465        O470   1.372       .  S
C466        C467   1.403       .  A
C467        C468   1.400       .  A
C467        H471   1.084       .  S
C468        O472   1.371       .  S
O470        H474   0.992   1_556  S
O472        H473   0.992   1_554  S
