geometry optimzed in LAMMPS
_audit_creation_date              2020-11-30 
_audit_creation_method            'lammps2cif' 
_symmetry_space_group_name_H-M    'P1' 
_symmetry_Int_Tables_number       1 
_symmetry_cell_setting            triclinic 
loop_ 
_symmetry_equiv_pos_as_xyz 
  x,y,z 
_cell_length_a                    45.87378233408294 
_cell_length_b                    45.91707198043356 
_cell_length_c                    45.899363633642935 
_cell_angle_alpha                 89.95047366282525 
_cell_angle_beta                  90.09127707102091 
_cell_angle_gamma                 89.99932973180938 
loop_ 
_atom_site_label 
_atom_site_type_symbol 
_atom_site_fract_x 
_atom_site_fract_y 
_atom_site_fract_z 
_atom_site_charge 
C1          C  0.25026459  0.37203110  0.50067172     0.02980
C2          C  0.22376516  0.35648341  0.50082444    -0.13170
C3          C  0.22384171  0.32598016  0.50047311     0.00480
C4          C  0.25028803  0.31090404  0.00081835    -0.11690
C5          C  0.27675860  0.32596672  0.00105989     0.02980
C6          C  0.27677170  0.35648941  0.00047559    -0.11110
H7          H  0.20311899  0.36791813  0.50072210     0.08570
H8          H  0.25026735  0.28729189  0.00063730     0.06100
H9          H  0.29740308  0.36795527  0.00000555     0.05950
C10         C  0.41033792  0.21191430  0.00053083     0.02980
C11         C  0.39467916  0.23834716  0.00046707    -0.13170
C12         C  0.36412780  0.23818021  0.00016624     0.00480
C13         C  0.34912464  0.21170766  0.00075098    -0.11690
C14         C  0.36427390  0.18531767  0.00116414     0.02980
C15         C  0.39483520  0.18538068  0.00060967    -0.11110
H16         H  0.40606812  0.25900309  0.00012528     0.08570
H17         H  0.32548165  0.21164463  0.00057865     0.06100
H18         H  0.40635351  0.16479976  0.00038232     0.05950
C19         C  0.25013887  0.05176563  0.00034636     0.02980
C20         C  0.22360212  0.06727616  0.50030342    -0.13170
C21         C  0.22357717  0.09780147  0.00086766     0.00480
C22         C  0.25000567  0.11292158  0.00058532    -0.11690
C23         C  0.27648922  0.09790869  0.00016631     0.02980
C24         C  0.27661765  0.06738294  0.00044144    -0.11110
H25         H  0.20298017  0.05578707  0.50001525     0.08570
H26         H  0.24996316  0.13653515  0.00045627     0.06100
H27         H  0.29727974  0.05598331  0.00024736     0.05950
C28         C  0.09024534  0.21204934  0.00044362     0.02980
C29         C  0.10576459  0.23854287  0.00047001    -0.13170
C30         C  0.13630349  0.23854113  0.00092690     0.00480
C31         C  0.15143662  0.21213916  0.00046754    -0.11690
C32         C  0.13637970  0.18569407  0.00000942     0.02980
C33         C  0.10583959  0.18558776  0.00038861    -0.11110
H34         H  0.09428038  0.25914638  0.00035897     0.08570
H35         H  0.17507715  0.21217186  0.00030176     0.06100
H36         H  0.09440984  0.16495163  0.00017285     0.05950
C37         C  0.00064919  0.21185739  0.41039098     0.02980
C38         C  0.00083705  0.18525371  0.39504765    -0.13170
C39         C  0.99967452  0.18505497  0.36456710     0.00480
C40         C  0.99896665  0.21143370  0.34933430    -0.11690
C41         C  0.99855517  0.23807149  0.36415010     0.02980
C42         C  0.99978401  0.23827324  0.39467119    -0.11110
H43         H  0.00118315  0.16472124  0.40665816     0.08570
H44         H  0.99817105  0.21120240  0.32572232     0.06100
H45         H  0.99933240  0.25892419  0.40603013     0.05950
C46         C  0.50120965  0.37227464  0.25039400     0.02980
C47         C  0.50188461  0.35676528  0.27696051    -0.13170
C48         C  0.50258748  0.32625676  0.27695836     0.00480
C49         C  0.50286525  0.31132518  0.25044119    -0.11690
C50         C  0.50074335  0.32621974  0.22395714     0.02980
C51         C  0.50058722  0.35672878  0.22387859    -0.11110
H52         H  0.50126401  0.36822207  0.29756236     0.08570
H53         H  0.50319601  0.28770981  0.25047241     0.06100
H54         H  0.49910793  0.36817098  0.20329697     0.05950
C55         C  0.00121813  0.21216341  0.09009956     0.02980
C56         C  0.00106642  0.23872461  0.10557781    -0.13170
C57         C  0.00161440  0.23875767  0.13611615     0.00480
C58         C  0.00251728  0.21224136  0.15108117    -0.11690
C59         C  0.00182681  0.18570284  0.13622565     0.02980
C60         C  0.00134680  0.18564264  0.10569316    -0.11110
H61         H  0.99999554  0.25928245  0.09405541     0.08570
H62         H  0.00279421  0.21224755  0.17470456     0.06100
H63         H  0.00053014  0.16503444  0.09426934     0.05950
C64         C  0.50179848  0.05185466  0.25035414     0.02980
C65         C  0.50271784  0.06720914  0.27695728    -0.13170
C66         C  0.50285431  0.09770260  0.27708677     0.00480
C67         C  0.50218693  0.11288252  0.25071492    -0.11690
C68         C  0.50044760  0.09809861  0.22414555     0.02980
C69         C  0.50080325  0.06756982  0.22392202    -0.11110
H70         H  0.50281505  0.05563794  0.29752317     0.08570
H71         H  0.50202621  0.13649807  0.25092687     0.06100
H72         H  0.49946826  0.05623024  0.20329049     0.05950
C73         C  0.25031719  0.46138253  0.41036846     0.02980
C74         C  0.22381884  0.46219057  0.39474804    -0.13170
C75         C  0.22392464  0.46349142  0.36424789     0.00480
C76         C  0.25043770  0.46337336  0.34926890    -0.11690
C77         C  0.27685618  0.46235464  0.36437551     0.02980
C78         C  0.27685803  0.46116622  0.39488127    -0.11110
H79         H  0.20317409  0.46252214  0.40615353     0.08570
H80         H  0.25051803  0.46439933  0.32566459     0.06100
H81         H  0.29748054  0.46062725  0.40638407     0.05950
C82         C  0.41038039  0.46203398  0.25034465     0.02980
C83         C  0.39488007  0.46165860  0.27684876    -0.13170
C84         C  0.36435198  0.46024160  0.27685040     0.00480
C85         C  0.34921199  0.45954992  0.25041625    -0.11690
C86         C  0.36419541  0.46036255  0.22393545     0.02980
C87         C  0.39472662  0.46185199  0.22387640    -0.11110
H88         H  0.40638033  0.46230082  0.29745983     0.08570
H89         H  0.32558042  0.45886879  0.25045391     0.06100
H90         H  0.40611355  0.46270742  0.20324328     0.05950
C91         C  0.25009154  0.46175118  0.09014273     0.02980
C92         C  0.27652952  0.46181412  0.10587125    -0.13170
C93         C  0.27631048  0.46211919  0.13640589     0.00480
C94         C  0.24977779  0.46157987  0.15130216    -0.11690
C95         C  0.22341212  0.46114311  0.13604090     0.02980
C96         C  0.22351834  0.46165546  0.10552454    -0.11110
H97         H  0.29722205  0.46210488  0.09454988     0.08570
H98         H  0.24964765  0.46171378  0.17492376     0.06100
H99         H  0.20292684  0.46177957  0.09394620     0.05950
C100        C  0.09024564  0.46114868  0.25017129     0.02980
C101        C  0.10600127  0.46148182  0.27659000    -0.13170
C102        C  0.13655211  0.46211196  0.27632561     0.00480
C103        C  0.15136998  0.46244823  0.24974339    -0.11690
C104        C  0.13608512  0.46198703  0.22343857     0.02980
C105        C  0.10558560  0.46107982  0.22357817    -0.11110
H106        H  0.09469502  0.46166996  0.29728301     0.08570
H107        H  0.17499955  0.46321197  0.24951900     0.06100
H108        H  0.09398265  0.46088663  0.20301580     0.05950
O109        O  0.04420398  0.46165157  0.27445052    -0.73090
O110        O  0.45666534  0.46230997  0.27443848    -0.74070
O111        O  0.50033137  0.41835993  0.27448934    -0.62690
O112        O  0.50090235  0.00569845  0.27439515    -0.71100
O113        O  0.50071823  0.00579343  0.22610256    -0.70650
O114        O  0.50016223  0.41836883  0.22619375    -0.61910
O115        O  0.45652910  0.46234884  0.22615145    -0.74410
O116        O  0.04402366  0.46169320  0.22615362    -0.73190
Cu117      Cu  0.50048292  0.46202300  0.27611047     1.04560
Cu118      Cu  0.50031685  0.46206610  0.22447544     1.04330
C119        C  0.05798581  0.46146848  0.25027568     0.93110
C120        C  0.44269759  0.46234337  0.25030964     0.92250
C121        C  0.50046574  0.40450345  0.25035422     0.84390
C122        C  0.50110462  0.01961193  0.25026454     0.90670
O123        O  0.22604278  0.46190535  0.04391463    -0.73090
O124        O  0.22610572  0.46164837  0.45646018    -0.74070
O125        O  0.22608624  0.41813428  0.00035960    -0.62690
O126        O  0.22603993  0.00557524  0.00008960    -0.71100
O127        O  0.27435486  0.00562305  0.00021202    -0.70650
O128        O  0.27440700  0.41815911  0.00051799    -0.61910
O129        O  0.27442307  0.46165031  0.45659480    -0.74410
O130        O  0.27436212  0.46196139  0.04408179    -0.73190
Cu131      Cu  0.22439742  0.46182846  0.00019401     1.04560
Cu132      Cu  0.27605881  0.46186374  0.00034632     1.04330
C133        C  0.25017837  0.46189650  0.05787505     0.93110
C134        C  0.25028065  0.46150458  0.44264661     0.92250
C135        C  0.25025284  0.40427878  0.00050356     0.84390
C136        C  0.25018330  0.01948320  0.00018703     0.90670
O137        O  0.50046612  0.23623400  0.04391176    -0.73090
O138        O  0.50036570  0.23615051  0.45645065    -0.74070
O139        O  0.45651777  0.23615304  0.00020736    -0.62690
O140        O  0.04407908  0.23617341  0.00022665    -0.71100
O141        O  0.04410565  0.18789747  0.00036271    -0.70650
O142        O  0.45659332  0.18788493  0.00033054    -0.61910
O143        O  0.50043277  0.18787802  0.45661623    -0.74410
O144        O  0.50050299  0.18795928  0.04402995    -0.73190
Cu145      Cu  0.50033404  0.23785265  0.00018815     1.04560
Cu146      Cu  0.50038300  0.18624019  0.00032795     1.04330
C147        C  0.50065807  0.21211765  0.05784320     0.93110
C148        C  0.50052566  0.21197990  0.44265761     0.92250
C149        C  0.44265601  0.21199460  0.00033063     0.84390
C150        C  0.05797137  0.21203872  0.00033422     0.90670
C151        C  0.15274386  0.46292482  0.19607039    -0.06270
C152        C  0.16059559  0.43647213  0.18304997    -0.17400
C153        C  0.18211284  0.43543919  0.16148688     0.10930
C154        C  0.19602511  0.46144939  0.15274496    -0.06190
C155        C  0.18698136  0.48805740  0.16463401    -0.17430
C156        C  0.16548895  0.48908040  0.18615286     0.10960
S157        S  0.19301659  0.40006731  0.14840311    -0.32390
S158        S  0.15717578  0.02405122  0.20197088    -0.32400
H159        H  0.12860944  0.01715785  0.21056535     0.28970
H160        H  0.20184405  0.40928186  0.12062808     0.28960
H161        H  0.15122385  0.41632223  0.19103167     0.19560
H162        H  0.19793877  0.00799212  0.15829086     0.19560
C163        C  0.30352250  0.46337885  0.15347087    -0.06270
C164        C  0.31819707  0.43727052  0.15947928    -0.17400
C165        C  0.33989766  0.43599419  0.18095396     0.10930
C166        C  0.34712750  0.46142835  0.19668901    -0.06190
C167        C  0.33354380  0.48783450  0.18949612    -0.17430
C168        C  0.31189942  0.48909591  0.16806889     0.10960
S169        S  0.35508117  0.40075657  0.18938661    -0.32390
S170        S  0.29412110  0.02362759  0.16201610    -0.32400
H171        H  0.28584696  0.01818229  0.13303138     0.28970
H172        H  0.38235286  0.41082401  0.19887474     0.28960
H173        H  0.31144439  0.41740880  0.14865332     0.19560
H174        H  0.33875437  0.00731224  0.20177852     0.19560
C175        C  0.34747703  0.46103556  0.30415686    -0.06270
C176        C  0.33514628  0.48771195  0.31241234    -0.17400
C177        C  0.31365263  0.48906245  0.33392771     0.10930
C178        C  0.30417126  0.46316009  0.34752338    -0.06190
C179        C  0.31763195  0.43668729  0.34044538    -0.17430
C180        C  0.33917380  0.43533338  0.31889101     0.10960
S181        S  0.29744934  0.02408625  0.34131940    -0.32390
S182        S  0.35288754  0.39986778  0.30910704    -0.32400
H183        H  0.38032107  0.40927795  0.29943083     0.28970
H184        H  0.28848240  0.01775471  0.36989352     0.28960
H185        H  0.34117811  0.00741364  0.30087474     0.19560
H186        H  0.31002512  0.41671182  0.35047289     0.19560
C187        C  0.19669229  0.46582992  0.34726853    -0.06270
C188        C  0.17904198  0.44106319  0.34410656    -0.17400
C189        C  0.15781035  0.43965282  0.32212467     0.10930
C190        C  0.15383775  0.46378361  0.30338537    -0.06190
C191        C  0.16989988  0.48929612  0.30820977    -0.17430
C192        C  0.19109791  0.49063577  0.32997736     0.10960
S193        S  0.13819877  0.40585350  0.31786911    -0.32390
S194        S  0.21155704  0.02401808  0.33344591    -0.32400
H195        H  0.21906883  0.02025965  0.36292520     0.28970
H196        H  0.13550829  0.40698955  0.28739587     0.28960
H197        H  0.18334958  0.42195584  0.35730268     0.19560
H198        H  0.16677200  0.00791270  0.29400666     0.19560
C199        C  0.49910057  0.15872516  0.15368068    -0.06270
C200        C  0.47529230  0.15689379  0.17273418    -0.17400
C201        C  0.47392206  0.13550863  0.19423509     0.10930
C202        C  0.49700282  0.11534939  0.19712382    -0.06190
C203        C  0.01946037  0.11531356  0.17635809    -0.17430
C204        C  0.02090225  0.13697268  0.15477276     0.10960
S205        S  0.44288341  0.13614621  0.21836677    -0.32390
S206        S  0.05209686  0.13686023  0.13093543    -0.32400
H207        H  0.05526130  0.16726184  0.12939669     0.28970
H208        H  0.44370765  0.10634378  0.22541191     0.28960
H209        H  0.45820195  0.17317452  0.17168163     0.19560
H210        H  0.03713826  0.09978663  0.17837392     0.19560
C211        C  0.49872362  0.26576326  0.15348837    -0.06270
C212        C  0.47543007  0.26706856  0.17320026    -0.17400
C213        C  0.47418777  0.28839134  0.19470737     0.10930
C214        C  0.49690998  0.30904127  0.19696270    -0.06190
C215        C  0.01866122  0.30970372  0.17547188    -0.17430
C216        C  0.01994388  0.28812114  0.15382646     0.10960
S217        S  0.44381167  0.28701532  0.21965005    -0.32390
S218        S  0.05025176  0.28915820  0.12890112    -0.32400
H219        H  0.05449727  0.25887498  0.12769333     0.28970
H220        H  0.44416229  0.31681589  0.22669081     0.28960
H221        H  0.45867836  0.25040796  0.17266068     0.19560
H222        H  0.03599473  0.32567909  0.17692647     0.19560
C223        C  0.49952443  0.30891805  0.30393918    -0.06270
C224        C  0.47493334  0.29091309  0.30594905    -0.17400
C225        C  0.47285198  0.26944783  0.32728181     0.10930
C226        C  0.99610452  0.26531200  0.34703963    -0.06190
C227        C  0.01941985  0.28517062  0.34699321    -0.17430
C228        C  0.02145240  0.30692681  0.32553559     0.10960
S229        S  0.44039991  0.24730313  0.32732948    -0.32390
S230        S  0.05324950  0.33001697  0.32593276    -0.32400
H231        H  0.05568470  0.33318004  0.29559395     0.28970
H232        H  0.44163848  0.23999611  0.35706640     0.28960
H233        H  0.45765778  0.29283727  0.28990640     0.19560
H234        H  0.03715545  0.28237967  0.36237091     0.19560
C235        C  0.99802003  0.15759870  0.34790514    -0.06270
C236        C  0.02324686  0.14059216  0.34474397    -0.17400
C237        C  0.02502997  0.11917358  0.32301116     0.10930
C238        C  0.00093871  0.11462148  0.30431977    -0.06190
C239        C  0.47497106  0.12987581  0.30931277    -0.17430
C240        C  0.47314853  0.15098528  0.33103805     0.10960
S241        S  0.05906496  0.09985162  0.31927645    -0.32390
S242        S  0.43886348  0.16970030  0.33520700    -0.32400
H243        H  0.44306778  0.17773121  0.36446587     0.28970
H244        H  0.05747772  0.09508506  0.28910352     0.28960
H245        H  0.04232582  0.14545015  0.35782490     0.19560
H246        H  0.45629353  0.12614042  0.29529142     0.19560
C247        C  0.15325539  0.15842578  0.99887667    -0.06270
C248        C  0.16045104  0.14467455  0.02519600    -0.17400
C249        C  0.18181303  0.12291257  0.02622503     0.10930
C250        C  0.19625578  0.11470408  0.00034135    -0.06190
C251        C  0.18788112  0.12737431  0.47381727    -0.17430
C252        C  0.16653204  0.14907441  0.47279687     0.10960
S253        S  0.19184879  0.10889581  0.06154840    -0.32390
S254        S  0.15900875  0.16574203  0.43798709    -0.32400
H255        H  0.13030876  0.17426591  0.44439694     0.28970
H256        H  0.20035758  0.08117373  0.05195396     0.28960
H257        H  0.15064066  0.15217905  0.04530278     0.19560
H258        H  0.19923238  0.12145605  0.45398956     0.19560
C259        C  0.30375286  0.11485231  0.99902695    -0.06270
C260        C  0.31765858  0.12184737  0.02532331    -0.17400
C261        C  0.33935829  0.14328478  0.02639640     0.10930
C262        C  0.34736452  0.15800199  0.00057543    -0.06190
C263        C  0.33451276  0.14986538  0.47406941    -0.17430
C264        C  0.31286830  0.12846077  0.47300766     0.10960
S265        S  0.35352330  0.15305269  0.06172606    -0.32390
S266        S  0.29595142  0.12128543  0.43824073    -0.32400
H267        H  0.28755850  0.09251228  0.44445011     0.28970
H268        H  0.38118760  0.16176723  0.05209063     0.28960
H269        H  0.31031025  0.11182195  0.04539678     0.19560
H270        H  0.34025412  0.16143217  0.45429613     0.19560
C271        C  0.34715272  0.26538814  0.99868315    -0.06270
C272        C  0.34115990  0.28019679  0.02468643    -0.17400
C273        C  0.31973195  0.30190490  0.02575022     0.10930
C274        C  0.30404861  0.30901675  0.00019062    -0.06190
C275        C  0.31123938  0.29529586  0.47389070    -0.17430
C276        C  0.33259535  0.27362857  0.47285191     0.10960
S277        S  0.31116008  0.31708901  0.06092474    -0.32390
S278        S  0.33855295  0.25561278  0.43845946    -0.32400
H279        H  0.36753104  0.24733531  0.44401349     0.28970
H280        H  0.30253385  0.34459112  0.05079541     0.28960
H281        H  0.35192790  0.27352347  0.04463756     0.19560
H282        H  0.29897263  0.30039082  0.45433410     0.19560
C283        C  0.19654729  0.30913272  0.99942555    -0.06270
C284        C  0.18342801  0.30122523  0.02582813    -0.17400
C285        C  0.16180272  0.27973786  0.02675408     0.10930
C286        C  0.15314103  0.26585863  0.00069371    -0.06190
C287        C  0.16514485  0.27493377  0.47413128    -0.17430
C288        C  0.18668161  0.29644684  0.47320650     0.10960
S289        S  0.14849433  0.26886091  0.06207013    -0.32390
S290        S  0.20254742  0.30488597  0.43827244    -0.32400
H291        H  0.21097934  0.33347562  0.44518604     0.28970
H292        H  0.12063407  0.26033856  0.05273095     0.28960
H293        H  0.19132876  0.31058726  0.04602173     0.19560
H294        H  0.15883822  0.26402570  0.45415480     0.19560
C295        C  0.25026459  0.37203111  0.00067172     0.02980
C296        C  0.22376517  0.35648342  0.00082444    -0.13170
C297        C  0.22384172  0.32598016  0.00047311     0.00480
C298        C  0.25028802  0.31090403  0.50081835    -0.11690
C299        C  0.27675859  0.32596671  0.50105989     0.02980
C300        C  0.27677169  0.35648941  0.50047559    -0.11110
H301        H  0.20311900  0.36791813  0.00072210     0.08570
H302        H  0.25026734  0.28729189  0.50063730     0.06100
H303        H  0.29740307  0.36795526  0.50000555     0.05950
C304        C  0.41033791  0.21191430  0.50053082     0.02980
C305        C  0.39467915  0.23834716  0.50046706    -0.13170
C306        C  0.36412780  0.23818021  0.50016623     0.00480
C307        C  0.34912464  0.21170765  0.50075097    -0.11690
C308        C  0.36427389  0.18531767  0.50116414     0.02980
C309        C  0.39483519  0.18538068  0.50060966    -0.11110
H310        H  0.40606811  0.25900309  0.50012527     0.08570
H311        H  0.32548164  0.21164463  0.50057865     0.06100
H312        H  0.40635350  0.16479976  0.50038231     0.05950
C313        C  0.25013887  0.05176563  0.50034637     0.02980
C314        C  0.22360212  0.06727617  0.00030342    -0.13170
C315        C  0.22357716  0.09780147  0.50086767     0.00480
C316        C  0.25000567  0.11292157  0.50058533    -0.11690
C317        C  0.27648922  0.09790869  0.50016631     0.02980
C318        C  0.27661765  0.06738293  0.50044144    -0.11110
H319        H  0.20298018  0.05578707  0.00001525     0.08570
H320        H  0.24996315  0.13653515  0.50045627     0.06100
H321        H  0.29727973  0.05598331  0.50024736     0.05950
C322        C  0.09024533  0.21204933  0.50044363     0.02980
C323        C  0.10576458  0.23854287  0.50047002    -0.13170
C324        C  0.13630348  0.23854113  0.50092691     0.00480
C325        C  0.15143661  0.21213915  0.50046755    -0.11690
C326        C  0.13637970  0.18569407  0.50000942     0.02980
C327        C  0.10583959  0.18558776  0.50038861    -0.11110
H328        H  0.09428037  0.25914637  0.50035898     0.08570
H329        H  0.17507714  0.21217186  0.50030176     0.06100
H330        H  0.09440983  0.16495163  0.50017285     0.05950
C331        C  0.00064920  0.21185739  0.91039098     0.02980
C332        C  0.00083705  0.18525371  0.89504765    -0.13170
C333        C  0.99967451  0.18505498  0.86456710     0.00480
C334        C  0.99896665  0.21143370  0.84933430    -0.11690
C335        C  0.99855517  0.23807149  0.86415010     0.02980
C336        C  0.99978401  0.23827324  0.89467119    -0.11110
H337        H  0.00118315  0.16472124  0.90665816     0.08570
H338        H  0.99817104  0.21120241  0.82572232     0.06100
H339        H  0.99933240  0.25892419  0.90603014     0.05950
C340        C  0.50120964  0.37227463  0.75039400     0.02980
C341        C  0.50188460  0.35676527  0.77696051    -0.13170
C342        C  0.50258747  0.32625676  0.77695836     0.00480
C343        C  0.50286523  0.31132517  0.75044120    -0.11690
C344        C  0.50074334  0.32621973  0.72395715     0.02980
C345        C  0.50058721  0.35672878  0.72387859    -0.11110
H346        H  0.50126400  0.36822206  0.79756237     0.08570
H347        H  0.50319599  0.28770980  0.75047241     0.06100
H348        H  0.49910792  0.36817098  0.70329698     0.05950
C349        C  0.00121813  0.21216341  0.59009956     0.02980
C350        C  0.00106642  0.23872461  0.60557781    -0.13170
C351        C  0.00161440  0.23875766  0.63611614     0.00480
C352        C  0.00251728  0.21224136  0.65108117    -0.11690
C353        C  0.00182680  0.18570284  0.63622565     0.02980
C354        C  0.00134679  0.18564263  0.60569316    -0.11110
H355        H  0.99999554  0.25928245  0.59405541     0.08570
H356        H  0.00279421  0.21224754  0.67470455     0.06100
H357        H  0.00053012  0.16503444  0.59426934     0.05950
C358        C  0.50179847  0.05185466  0.75035413     0.02980
C359        C  0.50271784  0.06720914  0.77695728    -0.13170
C360        C  0.50285430  0.09770260  0.77708677     0.00480
C361        C  0.50218692  0.11288252  0.75071491    -0.11690
C362        C  0.50044759  0.09809861  0.72414555     0.02980
C363        C  0.50080325  0.06756982  0.72392201    -0.11110
H364        H  0.50281505  0.05563794  0.79752317     0.08570
H365        H  0.50202619  0.13649807  0.75092686     0.06100
H366        H  0.49946826  0.05623024  0.70329049     0.05950
C367        C  0.25031720  0.46138254  0.91036846     0.02980
C368        C  0.22381885  0.46219057  0.89474804    -0.13170
C369        C  0.22392465  0.46349142  0.86424789     0.00480
C370        C  0.25043770  0.46337336  0.84926890    -0.11690
C371        C  0.27685619  0.46235464  0.86437551     0.02980
C372        C  0.27685804  0.46116623  0.89488127    -0.11110
H373        H  0.20317409  0.46252214  0.90615353     0.08570
H374        H  0.25051804  0.46439933  0.82566459     0.06100
H375        H  0.29748055  0.46062726  0.90638407     0.05950
C376        C  0.41038039  0.46203398  0.75034465     0.02980
C377        C  0.39488007  0.46165859  0.77684875    -0.13170
C378        C  0.36435198  0.46024160  0.77685040     0.00480
C379        C  0.34921199  0.45954992  0.75041625    -0.11690
C380        C  0.36419541  0.46036255  0.72393545     0.02980
C381        C  0.39472662  0.46185198  0.72387640    -0.11110
H382        H  0.40638033  0.46230082  0.79745983     0.08570
H383        H  0.32558042  0.45886878  0.75045391     0.06100
H384        H  0.40611355  0.46270741  0.70324328     0.05950
C385        C  0.25009154  0.46175117  0.59014273     0.02980
C386        C  0.27652953  0.46181411  0.60587124    -0.13170
C387        C  0.27631048  0.46211918  0.63640589     0.00480
C388        C  0.24977780  0.46157986  0.65130216    -0.11690
C389        C  0.22341212  0.46114311  0.63604090     0.02980
C390        C  0.22351834  0.46165545  0.60552454    -0.11110
H391        H  0.29722205  0.46210487  0.59454987     0.08570
H392        H  0.24964766  0.46171377  0.67492376     0.06100
H393        H  0.20292685  0.46177956  0.59394620     0.05950
C394        C  0.09024565  0.46114868  0.75017129     0.02980
C395        C  0.10600127  0.46148181  0.77659000    -0.13170
C396        C  0.13655211  0.46211194  0.77632562     0.00480
C397        C  0.15136998  0.46244821  0.74974340    -0.11690
C398        C  0.13608513  0.46198701  0.72343857     0.02980
C399        C  0.10558561  0.46107981  0.72357818    -0.11110
H400        H  0.09469502  0.46166996  0.79728302     0.08570
H401        H  0.17499956  0.46321194  0.74951901     0.06100
H402        H  0.09398266  0.46088662  0.70301580     0.05950
O403        O  0.04420398  0.46165157  0.77445052    -0.73090
O404        O  0.45666534  0.46230997  0.77443848    -0.74070
O405        O  0.50033137  0.41835993  0.77448935    -0.62690
O406        O  0.50090236  0.00569845  0.77439514    -0.71100
O407        O  0.50071824  0.00579343  0.72610256    -0.70650
O408        O  0.50016223  0.41836882  0.72619375    -0.61910
O409        O  0.45652910  0.46234883  0.72615145    -0.74410
O410        O  0.04402366  0.46169320  0.72615362    -0.73190
Cu411      Cu  0.50048292  0.46202299  0.77611047     1.04560
Cu412      Cu  0.50031685  0.46206609  0.72447544     1.04330
C413        C  0.05798581  0.46146848  0.75027568     0.93110
C414        C  0.44269759  0.46234337  0.75030964     0.92250
C415        C  0.50046574  0.40450345  0.75035422     0.84390
C416        C  0.50110463  0.01961193  0.75026453     0.90670
O417        O  0.22604277  0.46190534  0.54391464    -0.73090
O418        O  0.22610572  0.46164837  0.95646018    -0.74070
O419        O  0.22608624  0.41813428  0.50035960    -0.62690
O420        O  0.22603993  0.00557524  0.50008960    -0.71100
O421        O  0.27435485  0.00562305  0.50021202    -0.70650
O422        O  0.27440699  0.41815911  0.50051799    -0.61910
O423        O  0.27442307  0.46165032  0.95659480    -0.74410
O424        O  0.27436212  0.46196138  0.54408179    -0.73190
Cu425      Cu  0.22439741  0.46182845  0.50019401     1.04560
Cu426      Cu  0.27605881  0.46186373  0.50034631     1.04330
C427        C  0.25017837  0.46189649  0.55787505     0.93110
C428        C  0.25028066  0.46150458  0.94264661     0.92250
C429        C  0.25025283  0.40427877  0.50050355     0.84390
C430        C  0.25018329  0.01948319  0.50018703     0.90670
O431        O  0.50046611  0.23623400  0.54391176    -0.73090
O432        O  0.50036571  0.23615050  0.95645065    -0.74070
O433        O  0.45651776  0.23615305  0.50020735    -0.62690
O434        O  0.04407907  0.23617341  0.50022665    -0.71100
O435        O  0.04410564  0.18789746  0.50036271    -0.70650
O436        O  0.45659332  0.18788493  0.50033053    -0.61910
O437        O  0.50043277  0.18787801  0.95661623    -0.74410
O438        O  0.50050298  0.18795929  0.54402995    -0.73190
Cu439      Cu  0.50033403  0.23785265  0.50018815     1.04560
Cu440      Cu  0.50038300  0.18624019  0.50032795     1.04330
C441        C  0.50065806  0.21211765  0.55784320     0.93110
C442        C  0.50052566  0.21197990  0.94265761     0.92250
C443        C  0.44265600  0.21199460  0.50033063     0.84390
C444        C  0.05797136  0.21203872  0.50033422     0.90670
C445        C  0.15274386  0.46292480  0.69607040    -0.06270
C446        C  0.16059561  0.43647211  0.68304998    -0.17400
C447        C  0.18211285  0.43543917  0.66148689     0.10930
C448        C  0.19602512  0.46144938  0.65274497    -0.06190
C449        C  0.18698137  0.48805739  0.66463401    -0.17430
C450        C  0.16548896  0.48908039  0.68615286     0.10960
S451        S  0.19301661  0.40006730  0.64840312    -0.32390
S452        S  0.15717578  0.02405121  0.70197088    -0.32400
H453        H  0.12860945  0.01715783  0.71056535     0.28970
H454        H  0.20184407  0.40928184  0.62062809     0.28960
H455        H  0.15122387  0.41632222  0.69103168     0.19560
H456        H  0.19793877  0.00799211  0.65829086     0.19560
C457        C  0.30352251  0.46337883  0.65347086    -0.06270
C458        C  0.31819706  0.43727050  0.65947929    -0.17400
C459        C  0.33989765  0.43599418  0.68095397     0.10930
C460        C  0.34712750  0.46142834  0.69668900    -0.06190
C461        C  0.33354381  0.48783449  0.68949610    -0.17430
C462        C  0.31189944  0.48909590  0.66806887     0.10960
S463        S  0.35508116  0.40075656  0.68938663    -0.32390
S464        S  0.29412109  0.02362760  0.66201611    -0.32400
H465        H  0.28584696  0.01818229  0.63303139     0.28970
H466        H  0.38235285  0.41082399  0.69887474     0.28960
H467        H  0.31144438  0.41740878  0.64865334     0.19560
H468        H  0.33875436  0.00731224  0.70177853     0.19560
C469        C  0.34747703  0.46103556  0.80415686    -0.06270
C470        C  0.33514629  0.48771194  0.81241234    -0.17400
C471        C  0.31365264  0.48906245  0.83392771     0.10930
C472        C  0.30417127  0.46316009  0.84752339    -0.06190
C473        C  0.31763195  0.43668729  0.84044538    -0.17430
C474        C  0.33917380  0.43533337  0.81889100     0.10960
S475        S  0.29744936  0.02408626  0.84131941    -0.32390
S476        S  0.35288753  0.39986777  0.80910704    -0.32400
H477        H  0.38032107  0.40927794  0.79943082     0.28970
H478        H  0.28848242  0.01775471  0.86989353     0.28960
H479        H  0.34117812  0.00741365  0.80087475     0.19560
H480        H  0.31002512  0.41671182  0.85047289     0.19560
C481        C  0.19669229  0.46582990  0.84726853    -0.06270
C482        C  0.17904200  0.44106316  0.84410655    -0.17400
C483        C  0.15781037  0.43965279  0.82212466     0.10930
C484        C  0.15383775  0.46378359  0.80338538    -0.06190
C485        C  0.16989987  0.48929611  0.80820978    -0.17430
C486        C  0.19109791  0.49063576  0.82997737     0.10960
S487        S  0.13819882  0.40585346  0.81786909    -0.32390
S488        S  0.21155701  0.02401807  0.83344594    -0.32400
H489        H  0.21906881  0.02025963  0.86292522     0.28970
H490        H  0.13550829  0.40698954  0.78739586     0.28960
H491        H  0.18334961  0.42195581  0.85730266     0.19560
H492        H  0.16677198  0.00791269  0.79400669     0.19560
C493        C  0.49910055  0.15872516  0.65368067    -0.06270
C494        C  0.47529229  0.15689379  0.67273418    -0.17400
C495        C  0.47392205  0.13550863  0.69423509     0.10930
C496        C  0.49700281  0.11534939  0.69712381    -0.06190
C497        C  0.01946035  0.11531355  0.67635808    -0.17430
C498        C  0.02090223  0.13697267  0.65477275     0.10960
S499        S  0.44288340  0.13614621  0.71836676    -0.32390
S500        S  0.05209684  0.13686021  0.63093541    -0.32400
H501        H  0.05526129  0.16726181  0.62939667     0.28970
H502        H  0.44370764  0.10634378  0.72541191     0.28960
H503        H  0.45820194  0.17317452  0.67168162     0.19560
H504        H  0.03713824  0.09978662  0.67837391     0.19560
C505        C  0.49872361  0.26576325  0.65348837    -0.06270
C506        C  0.47543006  0.26706855  0.67320027    -0.17400
C507        C  0.47418775  0.28839134  0.69470737     0.10930
C508        C  0.49690996  0.30904127  0.69696271    -0.06190
C509        C  0.01866122  0.30970372  0.67547188    -0.17430
C510        C  0.01994388  0.28812114  0.65382646     0.10960
S511        S  0.44381165  0.28701531  0.71965005    -0.32390
S512        S  0.05025175  0.28915821  0.62890112    -0.32400
H513        H  0.05449727  0.25887498  0.62769332     0.28970
H514        H  0.44416228  0.31681588  0.72669081     0.28960
H515        H  0.45867835  0.25040795  0.67266068     0.19560
H516        H  0.03599473  0.32567909  0.67692647     0.19560
C517        C  0.49952442  0.30891805  0.80393919    -0.06270
C518        C  0.47493333  0.29091309  0.80594906    -0.17400
C519        C  0.47285197  0.26944783  0.82728182     0.10930
C520        C  0.99610452  0.26531201  0.84703964    -0.06190
C521        C  0.01941986  0.28517062  0.84699321    -0.17430
C522        C  0.02145241  0.30692680  0.82553559     0.10960
S523        S  0.44039989  0.24730315  0.82732950    -0.32390
S524        S  0.05324951  0.33001696  0.82593275    -0.32400
H525        H  0.05568471  0.33318003  0.79559395     0.28970
H526        H  0.44163847  0.23999612  0.85706642     0.28960
H527        H  0.45765776  0.29283728  0.78990641     0.19560
H528        H  0.03715546  0.28237967  0.86237091     0.19560
C529        C  0.99802003  0.15759870  0.84790514    -0.06270
C530        C  0.02324685  0.14059215  0.84474398    -0.17400
C531        C  0.02502996  0.11917358  0.82301116     0.10930
C532        C  0.00093870  0.11462149  0.80431977    -0.06190
C533        C  0.47497104  0.12987582  0.80931275    -0.17430
C534        C  0.47314851  0.15098529  0.83103803     0.10960
S535        S  0.05906494  0.09985161  0.81927646    -0.32390
S536        S  0.43886347  0.16970032  0.83520698    -0.32400
H537        H  0.44306775  0.17773122  0.86446585     0.28970
H538        H  0.05747772  0.09508507  0.78910352     0.28960
H539        H  0.04232581  0.14545014  0.85782491     0.19560
H540        H  0.45629352  0.12614044  0.79529140     0.19560
C541        C  0.15325539  0.15842578  0.49887667    -0.06270
C542        C  0.16045103  0.14467453  0.52519600    -0.17400
C543        C  0.18181301  0.12291255  0.52622503     0.10930
C544        C  0.19625577  0.11470408  0.50034135    -0.06190
C545        C  0.18788112  0.12737430  0.97381727    -0.17430
C546        C  0.16653203  0.14907440  0.97279686     0.10960
S547        S  0.19184876  0.10889578  0.56154839    -0.32390
S548        S  0.15900873  0.16574201  0.93798708    -0.32400
H549        H  0.13030874  0.17426589  0.94439694     0.28970
H550        H  0.20035755  0.08117371  0.55195395     0.28960
H551        H  0.15064063  0.15217903  0.54530277     0.19560
H552        H  0.19923237  0.12145603  0.95398956     0.19560
C553        C  0.30375285  0.11485231  0.49902695    -0.06270
C554        C  0.31765858  0.12184736  0.52532330    -0.17400
C555        C  0.33935829  0.14328477  0.52639640     0.10930
C556        C  0.34736451  0.15800199  0.50057543    -0.06190
C557        C  0.33451277  0.14986538  0.97406941    -0.17430
C558        C  0.31286831  0.12846077  0.97300766     0.10960
S559        S  0.35352331  0.15305268  0.56172606    -0.32390
S560        S  0.29595144  0.12128542  0.93824072    -0.32400
H561        H  0.28755852  0.09251228  0.94445010     0.28970
H562        H  0.38118761  0.16176722  0.55209062     0.28960
H563        H  0.31031026  0.11182194  0.54539678     0.19560
H564        H  0.34025413  0.16143217  0.95429613     0.19560
C565        C  0.34715271  0.26538814  0.49868314    -0.06270
C566        C  0.34115988  0.28019678  0.52468643    -0.17400
C567        C  0.31973192  0.30190488  0.52575022     0.10930
C568        C  0.30404860  0.30901674  0.50019062    -0.06190
C569        C  0.31123938  0.29529585  0.97389070    -0.17430
C570        C  0.33259535  0.27362856  0.97285192     0.10960
S571        S  0.31116004  0.31708898  0.56092475    -0.32390
S572        S  0.33855294  0.25561276  0.93845947    -0.32400
H573        H  0.36753103  0.24733529  0.94401349     0.28970
H574        H  0.30253382  0.34459110  0.55079542     0.28960
H575        H  0.35192787  0.27352345  0.54463756     0.19560
H576        H  0.29897262  0.30039081  0.95433410     0.19560
C577        C  0.19654727  0.30913272  0.49942555    -0.06270
C578        C  0.18342799  0.30122523  0.52582813    -0.17400
C579        C  0.16180270  0.27973786  0.52675408     0.10930
C580        C  0.15314102  0.26585863  0.50069371    -0.06190
C581        C  0.16514486  0.27493378  0.97413128    -0.17430
C582        C  0.18668162  0.29644685  0.97320649     0.10960
S583        S  0.14849432  0.26886091  0.56207013    -0.32390
S584        S  0.20254743  0.30488598  0.93827244    -0.32400
H585        H  0.21097935  0.33347563  0.94518604     0.28970
H586        H  0.12063406  0.26033856  0.55273095     0.28960
H587        H  0.19132874  0.31058726  0.54602173     0.19560
H588        H  0.15883823  0.26402570  0.95415479     0.19560
C589        C  0.25026458  0.87203110  0.50067172     0.02980
C590        C  0.22376515  0.85648341  0.50082444    -0.13170
C591        C  0.22384170  0.82598016  0.50047311     0.00480
C592        C  0.25028803  0.81090404  0.00081835    -0.11690
C593        C  0.27675860  0.82596672  0.00105989     0.02980
C594        C  0.27677170  0.85648942  0.00047559    -0.11110
H595        H  0.20311898  0.86791813  0.50072211     0.08570
H596        H  0.25026735  0.78729189  0.00063730     0.06100
H597        H  0.29740307  0.86795527  0.00000555     0.05950
C598        C  0.41033791  0.71191430  0.00053083     0.02980
C599        C  0.39467915  0.73834716  0.00046707    -0.13170
C600        C  0.36412780  0.73818021  0.00016625     0.00480
C601        C  0.34912464  0.71170766  0.00075098    -0.11690
C602        C  0.36427389  0.68531768  0.00116414     0.02980
C603        C  0.39483519  0.68538068  0.00060967    -0.11110
H604        H  0.40606812  0.75900310  0.00012528     0.08570
H605        H  0.32548165  0.71164463  0.00057866     0.06100
H606        H  0.40635350  0.66479976  0.00038231     0.05950
C607        C  0.25013887  0.55176563  0.00034636     0.02980
C608        C  0.22360212  0.56727616  0.50030342    -0.13170
C609        C  0.22357716  0.59780147  0.00086766     0.00480
C610        C  0.25000567  0.61292158  0.00058532    -0.11690
C611        C  0.27648922  0.59790870  0.00016630     0.02980
C612        C  0.27661765  0.56738294  0.00044143    -0.11110
H613        H  0.20298017  0.55578706  0.50001525     0.08570
H614        H  0.24996315  0.63653515  0.00045626     0.06100
H615        H  0.29727974  0.55598331  0.00024736     0.05950
C616        C  0.09024534  0.71204933  0.00044362     0.02980
C617        C  0.10576458  0.73854287  0.00047001    -0.13170
C618        C  0.13630349  0.73854113  0.00092690     0.00480
C619        C  0.15143662  0.71213915  0.00046754    -0.11690
C620        C  0.13637970  0.68569407  0.00000942     0.02980
C621        C  0.10583959  0.68558776  0.00038860    -0.11110
H622        H  0.09428037  0.75914637  0.00035897     0.08570
H623        H  0.17507714  0.71217186  0.00030175     0.06100
H624        H  0.09440984  0.66495163  0.00017285     0.05950
C625        C  0.00064919  0.71185739  0.41039098     0.02980
C626        C  0.00083705  0.68525371  0.39504765    -0.13170
C627        C  0.99967452  0.68505497  0.36456710     0.00480
C628        C  0.99896665  0.71143370  0.34933430    -0.11690
C629        C  0.99855516  0.73807149  0.36415010     0.02980
C630        C  0.99978400  0.73827324  0.39467119    -0.11110
H631        H  0.00118316  0.66472124  0.40665816     0.08570
H632        H  0.99817105  0.71120240  0.32572232     0.06100
H633        H  0.99933239  0.75892419  0.40603013     0.05950
C634        C  0.50120965  0.87227464  0.25039400     0.02980
C635        C  0.50188460  0.85676528  0.27696051    -0.13170
C636        C  0.50258748  0.82625676  0.27695836     0.00480
C637        C  0.50286524  0.81132517  0.25044119    -0.11690
C638        C  0.50074335  0.82621973  0.22395714     0.02980
C639        C  0.50058721  0.85672878  0.22387859    -0.11110
H640        H  0.50126400  0.86822206  0.29756236     0.08570
H641        H  0.50319601  0.78770981  0.25047240     0.06100
H642        H  0.49910792  0.86817098  0.20329697     0.05950
C643        C  0.00121813  0.71216341  0.09009956     0.02980
C644        C  0.00106642  0.73872462  0.10557781    -0.13170
C645        C  0.00161440  0.73875767  0.13611614     0.00480
C646        C  0.00251728  0.71224136  0.15108117    -0.11690
C647        C  0.00182681  0.68570284  0.13622565     0.02980
C648        C  0.00134680  0.68564264  0.10569316    -0.11110
H649        H  0.99999553  0.75928245  0.09405541     0.08570
H650        H  0.00279421  0.71224755  0.17470455     0.06100
H651        H  0.00053014  0.66503445  0.09426934     0.05950
C652        C  0.50179848  0.55185466  0.25035414     0.02980
C653        C  0.50271785  0.56720914  0.27695728    -0.13170
C654        C  0.50285431  0.59770260  0.27708677     0.00480
C655        C  0.50218693  0.61288253  0.25071491    -0.11690
C656        C  0.50044760  0.59809861  0.22414555     0.02980
C657        C  0.50080326  0.56756982  0.22392201    -0.11110
H658        H  0.50281506  0.55563794  0.29752317     0.08570
H659        H  0.50202621  0.63649808  0.25092686     0.06100
H660        H  0.49946827  0.55623024  0.20329049     0.05950
C661        C  0.25031718  0.96138254  0.41036846     0.02980
C662        C  0.22381884  0.96219059  0.39474804    -0.13170
C663        C  0.22392464  0.96349145  0.36424789     0.00480
C664        C  0.25043769  0.96337338  0.34926890    -0.11690
C665        C  0.27685617  0.96235464  0.36437551     0.02980
C666        C  0.27685803  0.96116622  0.39488127    -0.11110
H667        H  0.20317408  0.96252217  0.40615353     0.08570
H668        H  0.25051803  0.96439935  0.32566459     0.06100
H669        H  0.29748054  0.96062724  0.40638407     0.05950
C670        C  0.41038039  0.96203397  0.25034465     0.02980
C671        C  0.39488007  0.96165858  0.27684876    -0.13170
C672        C  0.36435197  0.96024159  0.27685040     0.00480
C673        C  0.34921198  0.95954991  0.25041625    -0.11690
C674        C  0.36419540  0.96036254  0.22393545     0.02980
C675        C  0.39472661  0.96185198  0.22387640    -0.11110
H676        H  0.40638033  0.96230081  0.29745983     0.08570
H677        H  0.32558041  0.95886877  0.25045391     0.06100
H678        H  0.40611354  0.96270740  0.20324328     0.05950
C679        C  0.25009153  0.96175118  0.09014273     0.02980
C680        C  0.27652952  0.96181411  0.10587125    -0.13170
C681        C  0.27631048  0.96211919  0.13640589     0.00480
C682        C  0.24977779  0.96157987  0.15130216    -0.11690
C683        C  0.22341211  0.96114312  0.13604090     0.02980
C684        C  0.22351834  0.96165546  0.10552454    -0.11110
H685        H  0.29722205  0.96210487  0.09454988     0.08570
H686        H  0.24964765  0.96171378  0.17492376     0.06100
H687        H  0.20292684  0.96177958  0.09394620     0.05950
C688        C  0.09024564  0.96114869  0.25017129     0.02980
C689        C  0.10600127  0.96148184  0.27659000    -0.13170
C690        C  0.13655211  0.96211199  0.27632561     0.00480
C691        C  0.15136998  0.96244826  0.24974339    -0.11690
C692        C  0.13608512  0.96198704  0.22343856     0.02980
C693        C  0.10558559  0.96107983  0.22357817    -0.11110
H694        H  0.09469501  0.96166999  0.29728301     0.08570
H695        H  0.17499955  0.96321200  0.24951900     0.06100
H696        H  0.09398265  0.96088663  0.20301580     0.05950
O697        O  0.04420398  0.96165157  0.27445052    -0.73090
O698        O  0.45666534  0.96230996  0.27443849    -0.74070
O699        O  0.50033137  0.91835993  0.27448934    -0.62690
O700        O  0.50090236  0.50569846  0.27439515    -0.71100
O701        O  0.50071824  0.50579343  0.22610256    -0.70650
O702        O  0.50016223  0.91836882  0.22619375    -0.61910
O703        O  0.45652910  0.96234883  0.22615145    -0.74410
O704        O  0.04402365  0.96169320  0.22615362    -0.73190
Cu705      Cu  0.50048292  0.96202299  0.27611047     1.04560
Cu706      Cu  0.50031685  0.96206610  0.22447544     1.04330
C707        C  0.05798580  0.96146848  0.25027568     0.93110
C708        C  0.44269759  0.96234336  0.25030964     0.92250
C709        C  0.50046574  0.90450345  0.25035421     0.84390
C710        C  0.50110463  0.51961193  0.25026454     0.90670
O711        O  0.22604277  0.96190535  0.04391463    -0.73090
O712        O  0.22610571  0.96164837  0.45646018    -0.74070
O713        O  0.22608624  0.91813428  0.00035960    -0.62690
O714        O  0.22603993  0.50557524  0.00008960    -0.71100
O715        O  0.27435486  0.50562305  0.00021202    -0.70650
O716        O  0.27440700  0.91815911  0.00051799    -0.61910
O717        O  0.27442306  0.96165031  0.45659480    -0.74410
O718        O  0.27436212  0.96196139  0.04408179    -0.73190
Cu719      Cu  0.22439741  0.96182846  0.00019401     1.04560
Cu720      Cu  0.27605881  0.96186374  0.00034632     1.04330
C721        C  0.25017837  0.96189650  0.05787505     0.93110
C722        C  0.25028064  0.96150458  0.44264661     0.92250
C723        C  0.25025284  0.90427878  0.00050356     0.84390
C724        C  0.25018330  0.51948320  0.00018703     0.90670
O725        O  0.50046612  0.73623400  0.04391176    -0.73090
O726        O  0.50036570  0.73615051  0.45645065    -0.74070
O727        O  0.45651776  0.73615304  0.00020735    -0.62690
O728        O  0.04407908  0.73617341  0.00022664    -0.71100
O729        O  0.04410565  0.68789747  0.00036270    -0.70650
O730        O  0.45659332  0.68788493  0.00033054    -0.61910
O731        O  0.50043277  0.68787802  0.45661623    -0.74410
O732        O  0.50050298  0.68795928  0.04402995    -0.73190
Cu733      Cu  0.50033404  0.73785265  0.00018815     1.04560
Cu734      Cu  0.50038300  0.68624019  0.00032795     1.04330
C735        C  0.50065806  0.71211765  0.05784320     0.93110
C736        C  0.50052566  0.71197990  0.44265761     0.92250
C737        C  0.44265601  0.71199460  0.00033063     0.84390
C738        C  0.05797136  0.71203872  0.00033422     0.90670
C739        C  0.15274385  0.96292483  0.19607039    -0.06270
C740        C  0.16059558  0.93647214  0.18304997    -0.17400
C741        C  0.18211283  0.93543919  0.16148688     0.10930
C742        C  0.19602511  0.96144940  0.15274496    -0.06190
C743        C  0.18698136  0.98805741  0.16463400    -0.17430
C744        C  0.16548895  0.98908041  0.18615286     0.10960
S745        S  0.19301658  0.90006732  0.14840311    -0.32390
S746        S  0.15717578  0.52405121  0.20197088    -0.32400
H747        H  0.12860944  0.51715783  0.21056535     0.28970
H748        H  0.20184404  0.90928186  0.12062808     0.28960
H749        H  0.15122384  0.91632224  0.19103167     0.19560
H750        H  0.19793877  0.50799212  0.15829086     0.19560
C751        C  0.30352250  0.96337883  0.15347087    -0.06270
C752        C  0.31819706  0.93727050  0.15947929    -0.17400
C753        C  0.33989765  0.93599418  0.18095397     0.10930
C754        C  0.34712749  0.96142834  0.19668901    -0.06190
C755        C  0.33354380  0.98783449  0.18949611    -0.17430
C756        C  0.31189943  0.98909590  0.16806888     0.10960
S757        S  0.35508116  0.90075656  0.18938661    -0.32390
S758        S  0.29412109  0.52362760  0.16201611    -0.32400
H759        H  0.28584695  0.51818230  0.13303139     0.28970
H760        H  0.38235285  0.91082399  0.19887474     0.28960
H761        H  0.31144437  0.91740879  0.14865333     0.19560
H762        H  0.33875436  0.50731225  0.20177852     0.19560
C763        C  0.34747702  0.96103554  0.30415686    -0.06270
C764        C  0.33514629  0.98771193  0.31241234    -0.17400
C765        C  0.31365263  0.98906245  0.33392771     0.10930
C766        C  0.30417126  0.96316008  0.34752339    -0.06190
C767        C  0.31763193  0.93668728  0.34044538    -0.17430
C768        C  0.33917379  0.93533336  0.31889100     0.10960
S769        S  0.29744932  0.52408626  0.34131939    -0.32390
S770        S  0.35288751  0.89986776  0.30910704    -0.32400
H771        H  0.38032105  0.90927793  0.29943082     0.28970
H772        H  0.28848238  0.51775471  0.36989351     0.28960
H773        H  0.34117810  0.50741366  0.30087474     0.19560
H774        H  0.31002510  0.91671181  0.35047288     0.19560
C775        C  0.19669228  0.96582995  0.34726853    -0.06270
C776        C  0.17904196  0.94106323  0.34410657    -0.17400
C777        C  0.15781032  0.93965286  0.32212468     0.10930
C778        C  0.15383775  0.96378364  0.30338537    -0.06190
C779        C  0.16989989  0.98929615  0.30820975    -0.17430
C780        C  0.19109793  0.99063579  0.32997734     0.10960
S781        S  0.13819873  0.90585356  0.31786914    -0.32390
S782        S  0.21155700  0.52401806  0.33344594    -0.32400
H783        H  0.21906879  0.52025962  0.36292523     0.28970
H784        H  0.13550829  0.90698958  0.28739590     0.28960
H785        H  0.18334954  0.92195589  0.35730270     0.19560
H786        H  0.16677198  0.50791268  0.29400669     0.19560
C787        C  0.49910057  0.65872516  0.15368067    -0.06270
C788        C  0.47529229  0.65689378  0.17273417    -0.17400
C789        C  0.47392206  0.63550863  0.19423508     0.10930
C790        C  0.49700282  0.61534939  0.19712381    -0.06190
C791        C  0.01946038  0.61531357  0.17635809    -0.17430
C792        C  0.02090226  0.63697269  0.15477276     0.10960
S793        S  0.44288340  0.63614619  0.21836675    -0.32390
S794        S  0.05209688  0.63686024  0.13093544    -0.32400
H795        H  0.05526131  0.66726185  0.12939670     0.28970
H796        H  0.44370765  0.60634376  0.22541190     0.28960
H797        H  0.45820194  0.67317451  0.17168161     0.19560
H798        H  0.03713828  0.59978664  0.17837393     0.19560
C799        C  0.49872361  0.76576326  0.15348837    -0.06270
C800        C  0.47543006  0.76706855  0.17320026    -0.17400
C801        C  0.47418776  0.78839134  0.19470737     0.10930
C802        C  0.49690997  0.80904127  0.19696270    -0.06190
C803        C  0.01866121  0.80970372  0.17547188    -0.17430
C804        C  0.01994388  0.78812114  0.15382646     0.10960
S805        S  0.44381166  0.78701532  0.21965005    -0.32390
S806        S  0.05025175  0.78915821  0.12890111    -0.32400
H807        H  0.05449727  0.75887499  0.12769332     0.28970
H808        H  0.44416229  0.81681588  0.22669081     0.28960
H809        H  0.45867836  0.75040796  0.17266068     0.19560
H810        H  0.03599473  0.82567909  0.17692647     0.19560
C811        C  0.49952442  0.80891805  0.30393918    -0.06270
C812        C  0.47493334  0.79091309  0.30594904    -0.17400
C813        C  0.47285198  0.76944783  0.32728181     0.10930
C814        C  0.99610451  0.76531200  0.34703963    -0.06190
C815        C  0.01941984  0.78517062  0.34699321    -0.17430
C816        C  0.02145240  0.80692681  0.32553559     0.10960
S817        S  0.44039991  0.74730313  0.32732947    -0.32390
S818        S  0.05324949  0.83001698  0.32593276    -0.32400
H819        H  0.05568470  0.83318004  0.29559396     0.28970
H820        H  0.44163848  0.73999611  0.35706640     0.28960
H821        H  0.45765778  0.79283726  0.28990639     0.19560
H822        H  0.03715544  0.78237968  0.36237092     0.19560
C823        C  0.99802004  0.65759870  0.34790514    -0.06270
C824        C  0.02324687  0.64059216  0.34474397    -0.17400
C825        C  0.02502998  0.61917359  0.32301115     0.10930
C826        C  0.00093872  0.61462149  0.30431977    -0.06190
C827        C  0.47497105  0.62987581  0.30931277    -0.17430
C828        C  0.47314853  0.65098527  0.33103805     0.10960
S829        S  0.05906497  0.59985164  0.31927643    -0.32390
S830        S  0.43886348  0.66970029  0.33520701    -0.32400
H831        H  0.44306777  0.67773119  0.36446588     0.28970
H832        H  0.05747773  0.59508507  0.28910350     0.28960
H833        H  0.04232583  0.64545017  0.35782489     0.19560
H834        H  0.45629353  0.62614041  0.29529143     0.19560
C835        C  0.15325539  0.65842578  0.99887667    -0.06270
C836        C  0.16045104  0.64467455  0.02519600    -0.17400
C837        C  0.18181302  0.62291256  0.02622503     0.10930
C838        C  0.19625577  0.61470408  0.00034135    -0.06190
C839        C  0.18788112  0.62737430  0.47381727    -0.17430
C840        C  0.16653204  0.64907440  0.47279686     0.10960
S841        S  0.19184879  0.60889581  0.06154840    -0.32390
S842        S  0.15900875  0.66574202  0.43798708    -0.32400
H843        H  0.13030875  0.67426590  0.44439693     0.28970
H844        H  0.20035758  0.58117374  0.05195396     0.28960
H845        H  0.15064065  0.65217905  0.04530278     0.19560
H846        H  0.19923238  0.62145604  0.45398956     0.19560
C847        C  0.30375285  0.61485232  0.99902694    -0.06270
C848        C  0.31765859  0.62184735  0.02532329    -0.17400
C849        C  0.33935830  0.64328476  0.02639639     0.10930
C850        C  0.34736451  0.65800199  0.00057543    -0.06190
C851        C  0.33451273  0.64986540  0.47406940    -0.17430
C852        C  0.31286827  0.62846079  0.47300765     0.10960
S853        S  0.35352333  0.65305265  0.06172605    -0.32390
S854        S  0.29595138  0.62128547  0.43824072    -0.32400
H855        H  0.28755847  0.59251232  0.44445009     0.28970
H856        H  0.38118763  0.66176719  0.05209060     0.28960
H857        H  0.31031028  0.61182192  0.04539677     0.19560
H858        H  0.34025408  0.66143221  0.45429613     0.19560
C859        C  0.34715272  0.76538814  0.99868316    -0.06270
C860        C  0.34115988  0.78019678  0.02468645    -0.17400
C861        C  0.31973193  0.80190489  0.02575023     0.10930
C862        C  0.30404860  0.80901675  0.00019063    -0.06190
C863        C  0.31123940  0.79529588  0.47389070    -0.17430
C864        C  0.33259537  0.77362858  0.47285192     0.10960
S865        S  0.31116003  0.81708899  0.06092475    -0.32390
S866        S  0.33855300  0.75561282  0.43845946    -0.32400
H867        H  0.36753109  0.74733535  0.44401351     0.28970
H868        H  0.30253389  0.84459113  0.05079541     0.28960
H869        H  0.35192786  0.77352345  0.04463758     0.19560
H870        H  0.29897266  0.80039084  0.45433409     0.19560
C871        C  0.19654728  0.80913272  0.99942555    -0.06270
C872        C  0.18342802  0.80122522  0.02582814    -0.17400
C873        C  0.16180272  0.77973785  0.02675408     0.10930
C874        C  0.15314103  0.76585863  0.00069371    -0.06190
C875        C  0.16514484  0.77493378  0.47413128    -0.17430
C876        C  0.18668160  0.79644685  0.47320650     0.10960
S877        S  0.14849435  0.76886088  0.06207013    -0.32390
S878        S  0.20254739  0.80488600  0.43827244    -0.32400
H879        H  0.21097931  0.83347564  0.44518604     0.28970
H880        H  0.12063409  0.76033853  0.05273096     0.28960
H881        H  0.19132877  0.81058724  0.04602174     0.19560
H882        H  0.15883820  0.76402571  0.45415480     0.19560
C883        C  0.25026459  0.87203111  0.00067172     0.02980
C884        C  0.22376516  0.85648342  0.00082444    -0.13170
C885        C  0.22384171  0.82598016  0.00047311     0.00480
C886        C  0.25028802  0.81090403  0.50081835    -0.11690
C887        C  0.27675859  0.82596671  0.50105988     0.02980
C888        C  0.27677169  0.85648941  0.50047559    -0.11110
H889        H  0.20311899  0.86791813  0.00072211     0.08570
H890        H  0.25026734  0.78729189  0.50063730     0.06100
H891        H  0.29740306  0.86795526  0.50000555     0.05950
C892        C  0.41033791  0.71191430  0.50053082     0.02980
C893        C  0.39467915  0.73834716  0.50046707    -0.13170
C894        C  0.36412780  0.73818021  0.50016624     0.00480
C895        C  0.34912463  0.71170766  0.50075098    -0.11690
C896        C  0.36427389  0.68531767  0.50116414     0.02980
C897        C  0.39483519  0.68538068  0.50060966    -0.11110
H898        H  0.40606811  0.75900310  0.50012528     0.08570
H899        H  0.32548164  0.71164463  0.50057865     0.06100
H900        H  0.40635350  0.66479977  0.50038231     0.05950
C901        C  0.25013887  0.55176563  0.50034636     0.02980
C902        C  0.22360212  0.56727616  0.00030342    -0.13170
C903        C  0.22357716  0.59780147  0.50086767     0.00480
C904        C  0.25000567  0.61292157  0.50058532    -0.11690
C905        C  0.27648921  0.59790869  0.50016631     0.02980
C906        C  0.27661765  0.56738293  0.50044144    -0.11110
H907        H  0.20298017  0.55578707  0.00001525     0.08570
H908        H  0.24996315  0.63653515  0.50045627     0.06100
H909        H  0.29727973  0.55598331  0.50024736     0.05950
C910        C  0.09024533  0.71204933  0.50044362     0.02980
C911        C  0.10576458  0.73854286  0.50047002    -0.13170
C912        C  0.13630348  0.73854112  0.50092691     0.00480
C913        C  0.15143661  0.71213915  0.50046755    -0.11690
C914        C  0.13637969  0.68569406  0.50000942     0.02980
C915        C  0.10583958  0.68558776  0.50038861    -0.11110
H916        H  0.09428037  0.75914637  0.50035898     0.08570
H917        H  0.17507714  0.71217185  0.50030176     0.06100
H918        H  0.09440983  0.66495162  0.50017285     0.05950
C919        C  0.00064919  0.71185739  0.91039098     0.02980
C920        C  0.00083705  0.68525371  0.89504765    -0.13170
C921        C  0.99967451  0.68505497  0.86456710     0.00480
C922        C  0.99896664  0.71143370  0.84933430    -0.11690
C923        C  0.99855516  0.73807149  0.86415010     0.02980
C924        C  0.99978400  0.73827324  0.89467119    -0.11110
H925        H  0.00118315  0.66472124  0.90665816     0.08570
H926        H  0.99817104  0.71120241  0.82572232     0.06100
H927        H  0.99933240  0.75892419  0.90603013     0.05950
C928        C  0.50120965  0.87227463  0.75039400     0.02980
C929        C  0.50188460  0.85676527  0.77696051    -0.13170
C930        C  0.50258747  0.82625676  0.77695836     0.00480
C931        C  0.50286523  0.81132517  0.75044120    -0.11690
C932        C  0.50074334  0.82621973  0.72395714     0.02980
C933        C  0.50058721  0.85672878  0.72387859    -0.11110
H934        H  0.50126400  0.86822206  0.79756236     0.08570
H935        H  0.50319599  0.78770980  0.75047241     0.06100
H936        H  0.49910792  0.86817098  0.70329697     0.05950
C937        C  0.00121812  0.71216341  0.59009956     0.02980
C938        C  0.00106641  0.73872461  0.60557781    -0.13170
C939        C  0.00161439  0.73875766  0.63611614     0.00480
C940        C  0.00251727  0.71224136  0.65108117    -0.11690
C941        C  0.00182679  0.68570284  0.63622565     0.02980
C942        C  0.00134679  0.68564263  0.60569315    -0.11110
H943        H  0.99999553  0.75928245  0.59405541     0.08570
H944        H  0.00279420  0.71224754  0.67470455     0.06100
H945        H  0.00053012  0.66503444  0.59426934     0.05950
C946        C  0.50179848  0.55185465  0.75035413     0.02980
C947        C  0.50271784  0.56720914  0.77695728    -0.13170
C948        C  0.50285430  0.59770260  0.77708676     0.00480
C949        C  0.50218692  0.61288252  0.75071491    -0.11690
C950        C  0.50044759  0.59809861  0.72414554     0.02980
C951        C  0.50080325  0.56756982  0.72392201    -0.11110
H952        H  0.50281505  0.55563794  0.79752317     0.08570
H953        H  0.50202620  0.63649807  0.75092686     0.06100
H954        H  0.49946827  0.55623023  0.70329048     0.05950
C955        C  0.25031720  0.96138254  0.91036846     0.02980
C956        C  0.22381885  0.96219058  0.89474804    -0.13170
C957        C  0.22392465  0.96349143  0.86424789     0.00480
C958        C  0.25043771  0.96337337  0.84926890    -0.11690
C959        C  0.27685619  0.96235464  0.86437551     0.02980
C960        C  0.27685804  0.96116623  0.89488127    -0.11110
H961        H  0.20317410  0.96252216  0.90615353     0.08570
H962        H  0.25051805  0.96439934  0.82566459     0.06100
H963        H  0.29748055  0.96062725  0.90638407     0.05950
C964        C  0.41038039  0.96203397  0.75034465     0.02980
C965        C  0.39488008  0.96165858  0.77684875    -0.13170
C966        C  0.36435198  0.96024159  0.77685040     0.00480
C967        C  0.34921199  0.95954991  0.75041625    -0.11690
C968        C  0.36419541  0.96036254  0.72393545     0.02980
C969        C  0.39472662  0.96185198  0.72387640    -0.11110
H970        H  0.40638033  0.96230081  0.79745983     0.08570
H971        H  0.32558042  0.95886878  0.75045391     0.06100
H972        H  0.40611355  0.96270741  0.70324328     0.05950
C973        C  0.25009154  0.96175118  0.59014273     0.02980
C974        C  0.27652952  0.96181411  0.60587124    -0.13170
C975        C  0.27631048  0.96211919  0.63640589     0.00480
C976        C  0.24977780  0.96157987  0.65130216    -0.11690
C977        C  0.22341212  0.96114311  0.63604090     0.02980
C978        C  0.22351834  0.96165546  0.60552454    -0.11110
H979        H  0.29722205  0.96210488  0.59454987     0.08570
H980        H  0.24964766  0.96171378  0.67492376     0.06100
H981        H  0.20292684  0.96177957  0.59394620     0.05950
C982        C  0.09024565  0.96114869  0.75017129     0.02980
C983        C  0.10600127  0.96148183  0.77659000    -0.13170
C984        C  0.13655212  0.96211196  0.77632562     0.00480
C985        C  0.15136999  0.96244824  0.74974339    -0.11690
C986        C  0.13608513  0.96198703  0.72343857     0.02980
C987        C  0.10558561  0.96107982  0.72357818    -0.11110
H988        H  0.09469502  0.96166997  0.79728302     0.08570
H989        H  0.17499956  0.96321197  0.74951901     0.06100
H990        H  0.09398266  0.96088662  0.70301580     0.05950
O991        O  0.04420399  0.96165157  0.77445053    -0.73090
O992        O  0.45666534  0.96230996  0.77443848    -0.74070
O993        O  0.50033138  0.91835993  0.77448934    -0.62690
O994        O  0.50090236  0.50569845  0.77439514    -0.71100
O995        O  0.50071824  0.50579343  0.72610256    -0.70650
O996        O  0.50016223  0.91836882  0.72619375    -0.61910
O997        O  0.45652910  0.96234883  0.72615145    -0.74410
O998        O  0.04402366  0.96169321  0.72615362    -0.73190
Cu999      Cu  0.50048292  0.96202299  0.77611047     1.04560
Cu1000     Cu  0.50031685  0.96206609  0.72447544     1.04330
C1001       C  0.05798581  0.96146848  0.75027568     0.93110
C1002       C  0.44269760  0.96234336  0.75030964     0.92250
C1003       C  0.50046574  0.90450345  0.75035421     0.84390
C1004       C  0.50110463  0.51961193  0.75026453     0.90670
O1005       O  0.22604277  0.96190534  0.54391464    -0.73090
O1006       O  0.22610572  0.96164837  0.95646018    -0.74070
O1007       O  0.22608623  0.91813428  0.50035961    -0.62690
O1008       O  0.22603993  0.50557524  0.50008960    -0.71100
O1009       O  0.27435486  0.50562305  0.50021202    -0.70650
O1010       O  0.27440699  0.91815911  0.50051799    -0.61910
O1011       O  0.27442307  0.96165032  0.95659480    -0.74410
O1012       O  0.27436212  0.96196138  0.54408179    -0.73190
Cu1013     Cu  0.22439741  0.96182845  0.50019401     1.04560
Cu1014     Cu  0.27605880  0.96186373  0.50034632     1.04330
C1015       C  0.25017837  0.96189649  0.55787505     0.93110
C1016       C  0.25028066  0.96150458  0.94264661     0.92250
C1017       C  0.25025283  0.90427877  0.50050356     0.84390
C1018       C  0.25018330  0.51948319  0.50018703     0.90670
O1019       O  0.50046611  0.73623400  0.54391176    -0.73090
O1020       O  0.50036570  0.73615050  0.95645065    -0.74070
O1021       O  0.45651776  0.73615305  0.50020735    -0.62690
O1022       O  0.04407907  0.73617341  0.50022665    -0.71100
O1023       O  0.04410564  0.68789746  0.50036271    -0.70650
O1024       O  0.45659332  0.68788493  0.50033053    -0.61910
O1025       O  0.50043277  0.68787801  0.95661623    -0.74410
O1026       O  0.50050298  0.68795928  0.54402995    -0.73190
Cu1027     Cu  0.50033403  0.73785265  0.50018815     1.04560
Cu1028     Cu  0.50038300  0.68624019  0.50032795     1.04330
C1029       C  0.50065806  0.71211765  0.55784320     0.93110
C1030       C  0.50052566  0.71197990  0.94265761     0.92250
C1031       C  0.44265600  0.71199460  0.50033063     0.84390
C1032       C  0.05797136  0.71203872  0.50033422     0.90670
C1033       C  0.15274386  0.96292482  0.69607040    -0.06270
C1034       C  0.16059560  0.93647213  0.68304998    -0.17400
C1035       C  0.18211284  0.93543918  0.66148689     0.10930
C1036       C  0.19602512  0.96144939  0.65274497    -0.06190
C1037       C  0.18698137  0.98805740  0.66463401    -0.17430
C1038       C  0.16548896  0.98908040  0.68615286     0.10960
S1039       S  0.19301660  0.90006731  0.64840312    -0.32390
S1040       S  0.15717578  0.52405120  0.70197088    -0.32400
H1041       H  0.12860944  0.51715782  0.71056535     0.28970
H1042       H  0.20184406  0.90928185  0.62062809     0.28960
H1043       H  0.15122386  0.91632223  0.69103168     0.19560
H1044       H  0.19793877  0.50799211  0.65829086     0.19560
C1045       C  0.30352251  0.96337884  0.65347087    -0.06270
C1046       C  0.31819707  0.93727051  0.65947928    -0.17400
C1047       C  0.33989766  0.93599419  0.68095396     0.10930
C1048       C  0.34712750  0.96142834  0.69668900    -0.06190
C1049       C  0.33354380  0.98783449  0.68949612    -0.17430
C1050       C  0.31189943  0.98909590  0.66806888     0.10960
S1051       S  0.35508118  0.90075657  0.68938660    -0.32390
S1052       S  0.29412111  0.52362760  0.66201608    -0.32400
H1053       H  0.28584698  0.51818228  0.63303136     0.28970
H1054       H  0.38235287  0.91082401  0.69887472     0.28960
H1055       H  0.31144439  0.91740879  0.64865332     0.19560
H1056       H  0.33875438  0.50731225  0.70177850     0.19560
C1057       C  0.34747703  0.96103555  0.80415686    -0.06270
C1058       C  0.33514630  0.98771194  0.81241235    -0.17400
C1059       C  0.31365265  0.98906245  0.83392772     0.10930
C1060       C  0.30417127  0.96316008  0.84752339    -0.06190
C1061       C  0.31763195  0.93668728  0.84044538    -0.17430
C1062       C  0.33917380  0.93533336  0.81889100     0.10960
S1063       S  0.29744934  0.52408626  0.84131939    -0.32390
S1064       S  0.35288752  0.89986776  0.80910703    -0.32400
H1065       H  0.38032105  0.90927793  0.79943081     0.28970
H1066       H  0.28848240  0.51775471  0.86989351     0.28960
H1067       H  0.34117810  0.50741365  0.80087474     0.19560
H1068       H  0.31002511  0.91671181  0.85047288     0.19560
C1069       C  0.19669230  0.96582993  0.84726853    -0.06270
C1070       C  0.17904199  0.94106320  0.84410656    -0.17400
C1071       C  0.15781035  0.93965283  0.82212467     0.10930
C1072       C  0.15383776  0.96378362  0.80338538    -0.06190
C1073       C  0.16989989  0.98929613  0.80820977    -0.17430
C1074       C  0.19109793  0.99063578  0.82997736     0.10960
S1075       S  0.13819878  0.90585351  0.81786912    -0.32390
S1076       S  0.21155698  0.52401806  0.83344597    -0.32400
H1077       H  0.21906877  0.52025961  0.86292525     0.28970
H1078       H  0.13550829  0.90698956  0.78739588     0.28960
H1079       H  0.18334959  0.92195585  0.85730268     0.19560
H1080       H  0.16677195  0.50791267  0.79400671     0.19560
C1081       C  0.49910056  0.65872516  0.65368067    -0.06270
C1082       C  0.47529229  0.65689378  0.67273417    -0.17400
C1083       C  0.47392205  0.63550862  0.69423508     0.10930
C1084       C  0.49700281  0.61534939  0.69712381    -0.06190
C1085       C  0.01946036  0.61531356  0.67635808    -0.17430
C1086       C  0.02090223  0.63697268  0.65477275     0.10960
S1087       S  0.44288340  0.63614619  0.71836675    -0.32390
S1088       S  0.05209685  0.63686023  0.63093543    -0.32400
H1089       H  0.05526129  0.66726184  0.62939669     0.28970
H1090       H  0.44370764  0.60634376  0.72541189     0.28960
H1091       H  0.45820194  0.67317451  0.67168161     0.19560
H1092       H  0.03713825  0.59978663  0.67837392     0.19560
C1093       C  0.49872361  0.76576325  0.65348837    -0.06270
C1094       C  0.47543006  0.76706855  0.67320026    -0.17400
C1095       C  0.47418775  0.78839134  0.69470737     0.10930
C1096       C  0.49690996  0.80904127  0.69696270    -0.06190
C1097       C  0.01866121  0.80970372  0.67547188    -0.17430
C1098       C  0.01994388  0.78812113  0.65382646     0.10960
S1099       S  0.44381165  0.78701532  0.71965005    -0.32390
S1100       S  0.05025175  0.78915820  0.62890112    -0.32400
H1101       H  0.05449726  0.75887497  0.62769333     0.28970
H1102       H  0.44416227  0.81681588  0.72669081     0.28960
H1103       H  0.45867835  0.75040795  0.67266068     0.19560
H1104       H  0.03599473  0.82567908  0.67692647     0.19560
C1105       C  0.49952441  0.80891805  0.80393918    -0.06270
C1106       C  0.47493332  0.79091309  0.80594905    -0.17400
C1107       C  0.47285196  0.76944783  0.82728181     0.10930
C1108       C  0.99610452  0.76531200  0.84703964    -0.06190
C1109       C  0.01941985  0.78517062  0.84699321    -0.17430
C1110       C  0.02145241  0.80692680  0.82553559     0.10960
S1111       S  0.44039989  0.74730314  0.82732949    -0.32390
S1112       S  0.05324951  0.83001696  0.82593275    -0.32400
H1113       H  0.05568471  0.83318003  0.79559395     0.28970
H1114       H  0.44163847  0.73999612  0.85706641     0.28960
H1115       H  0.45765776  0.79283727  0.78990641     0.19560
H1116       H  0.03715545  0.78237967  0.86237091     0.19560
C1117       C  0.99802002  0.65759870  0.84790514    -0.06270
C1118       C  0.02324685  0.64059216  0.84474397    -0.17400
C1119       C  0.02502996  0.61917359  0.82301115     0.10930
C1120       C  0.00093870  0.61462149  0.80431976    -0.06190
C1121       C  0.47497104  0.62987582  0.80931275    -0.17430
C1122       C  0.47314851  0.65098528  0.83103804     0.10960
S1123       S  0.05906495  0.59985162  0.81927644    -0.32390
S1124       S  0.43886347  0.66970031  0.83520699    -0.32400
H1125       H  0.44306775  0.67773121  0.86446585     0.28970
H1126       H  0.05747772  0.59508508  0.78910351     0.28960
H1127       H  0.04232581  0.64545015  0.85782490     0.19560
H1128       H  0.45629352  0.62614043  0.79529140     0.19560
C1129       C  0.15325538  0.65842577  0.49887667    -0.06270
C1130       C  0.16045102  0.64467453  0.52519599    -0.17400
C1131       C  0.18181301  0.62291255  0.52622503     0.10930
C1132       C  0.19625577  0.61470407  0.50034135    -0.06190
C1133       C  0.18788111  0.62737430  0.97381727    -0.17430
C1134       C  0.16653203  0.64907439  0.97279686     0.10960
S1135       S  0.19184876  0.60889578  0.56154839    -0.32390
S1136       S  0.15900873  0.66574200  0.93798708    -0.32400
H1137       H  0.13030873  0.67426589  0.94439694     0.28970
H1138       H  0.20035755  0.58117371  0.55195395     0.28960
H1139       H  0.15064062  0.65217903  0.54530277     0.19560
H1140       H  0.19923236  0.62145602  0.95398956     0.19560
C1141       C  0.30375285  0.61485231  0.49902694    -0.06270
C1142       C  0.31765859  0.62184734  0.52532329    -0.17400
C1143       C  0.33935830  0.64328475  0.52639638     0.10930
C1144       C  0.34736451  0.65800199  0.50057542    -0.06190
C1145       C  0.33451274  0.64986540  0.97406941    -0.17430
C1146       C  0.31286828  0.62846079  0.97300765     0.10960
S1147       S  0.35352334  0.65305264  0.56172604    -0.32390
S1148       S  0.29595139  0.62128546  0.93824072    -0.32400
H1149       H  0.28755848  0.59251232  0.94445009     0.28970
H1150       H  0.38118764  0.66176718  0.55209060     0.28960
H1151       H  0.31031029  0.61182191  0.54539676     0.19560
H1152       H  0.34025410  0.66143220  0.95429613     0.19560
C1153       C  0.34715271  0.76538814  0.49868316    -0.06270
C1154       C  0.34115986  0.78019677  0.52468645    -0.17400
C1155       C  0.31973190  0.80190487  0.52575023     0.10930
C1156       C  0.30404859  0.80901675  0.50019063    -0.06190
C1157       C  0.31123940  0.79529587  0.97389071    -0.17430
C1158       C  0.33259536  0.77362858  0.97285192     0.10960
S1159       S  0.31116000  0.81708897  0.56092475    -0.32390
S1160       S  0.33855298  0.75561280  0.93845947    -0.32400
H1161       H  0.36753107  0.74733533  0.94401351     0.28970
H1162       H  0.30253387  0.84459111  0.55079542     0.28960
H1163       H  0.35192783  0.77352343  0.54463758     0.19560
H1164       H  0.29897265  0.80039083  0.95433410     0.19560
C1165       C  0.19654727  0.80913272  0.49942555    -0.06270
C1166       C  0.18342800  0.80122522  0.52582814    -0.17400
C1167       C  0.16180271  0.77973784  0.52675409     0.10930
C1168       C  0.15314102  0.76585862  0.50069372    -0.06190
C1169       C  0.16514485  0.77493379  0.97413128    -0.17430
C1170       C  0.18668161  0.79644686  0.97320650     0.10960
S1171       S  0.14849434  0.76886088  0.56207014    -0.32390
S1172       S  0.20254740  0.80488601  0.93827244    -0.32400
H1173       H  0.21097932  0.83347565  0.94518605     0.28970
H1174       H  0.12063408  0.76033853  0.55273096     0.28960
H1175       H  0.19132876  0.81058724  0.54602174     0.19560
H1176       H  0.15883821  0.76402572  0.95415479     0.19560
C1177       C  0.75026459  0.37203111  0.50067172     0.02980
C1178       C  0.72376516  0.35648341  0.50082444    -0.13170
C1179       C  0.72384171  0.32598016  0.50047312     0.00480
C1180       C  0.75028802  0.31090404  0.00081835    -0.11690
C1181       C  0.77675860  0.32596672  0.00105989     0.02980
C1182       C  0.77677170  0.35648941  0.00047559    -0.11110
H1183       H  0.70311899  0.36791813  0.50072211     0.08570
H1184       H  0.75026734  0.28729189  0.00063731     0.06100
H1185       H  0.79740307  0.36795527  0.00000555     0.05950
C1186       C  0.91033792  0.21191430  0.00053082     0.02980
C1187       C  0.89467916  0.23834716  0.00046707    -0.13170
C1188       C  0.86412780  0.23818021  0.00016624     0.00480
C1189       C  0.84912464  0.21170766  0.00075098    -0.11690
C1190       C  0.86427390  0.18531767  0.00116414     0.02980
C1191       C  0.89483520  0.18538068  0.00060967    -0.11110
H1192       H  0.90606812  0.25900310  0.00012527     0.08570
H1193       H  0.82548165  0.21164463  0.00057865     0.06100
H1194       H  0.90635351  0.16479977  0.00038232     0.05950
C1195       C  0.75013888  0.05176563  0.00034636     0.02980
C1196       C  0.72360212  0.06727616  0.50030342    -0.13170
C1197       C  0.72357717  0.09780147  0.00086766     0.00480
C1198       C  0.75000568  0.11292158  0.00058532    -0.11690
C1199       C  0.77648922  0.09790869  0.00016631     0.02980
C1200       C  0.77661766  0.06738294  0.00044143    -0.11110
H1201       H  0.70298017  0.05578707  0.50001525     0.08570
H1202       H  0.74996316  0.13653515  0.00045627     0.06100
H1203       H  0.79727974  0.05598331  0.00024736     0.05950
C1204       C  0.59024534  0.21204933  0.00044362     0.02980
C1205       C  0.60576458  0.23854287  0.00047001    -0.13170
C1206       C  0.63630349  0.23854113  0.00092690     0.00480
C1207       C  0.65143662  0.21213916  0.00046755    -0.11690
C1208       C  0.63637970  0.18569407  0.00000942     0.02980
C1209       C  0.60583959  0.18558776  0.00038861    -0.11110
H1210       H  0.59428037  0.25914637  0.00035897     0.08570
H1211       H  0.67507714  0.21217186  0.00030176     0.06100
H1212       H  0.59440984  0.16495163  0.00017285     0.05950
C1213       C  0.50064919  0.21185739  0.41039098     0.02980
C1214       C  0.50083705  0.18525371  0.39504765    -0.13170
C1215       C  0.49967451  0.18505498  0.36456710     0.00480
C1216       C  0.49896664  0.21143370  0.34933430    -0.11690
C1217       C  0.49855516  0.23807149  0.36415010     0.02980
C1218       C  0.49978400  0.23827324  0.39467119    -0.11110
H1219       H  0.50118316  0.16472124  0.40665816     0.08570
H1220       H  0.49817104  0.21120240  0.32572232     0.06100
H1221       H  0.49933239  0.25892419  0.40603013     0.05950
C1222       C  0.00120965  0.37227464  0.25039400     0.02980
C1223       C  0.00188461  0.35676528  0.27696051    -0.13170
C1224       C  0.00258749  0.32625676  0.27695836     0.00480
C1225       C  0.00286525  0.31132518  0.25044119    -0.11690
C1226       C  0.00074335  0.32621974  0.22395714     0.02980
C1227       C  0.00058721  0.35672878  0.22387859    -0.11110
H1228       H  0.00126401  0.36822207  0.29756236     0.08570
H1229       H  0.00319602  0.28770981  0.25047240     0.06100
H1230       H  0.99910792  0.36817098  0.20329697     0.05950
C1231       C  0.50121814  0.21216341  0.09009956     0.02980
C1232       C  0.50106643  0.23872461  0.10557781    -0.13170
C1233       C  0.50161441  0.23875767  0.13611615     0.00480
C1234       C  0.50251729  0.21224136  0.15108117    -0.11690
C1235       C  0.50182682  0.18570284  0.13622565     0.02980
C1236       C  0.50134681  0.18564263  0.10569316    -0.11110
H1237       H  0.49999555  0.25928245  0.09405541     0.08570
H1238       H  0.50279422  0.21224755  0.17470456     0.06100
H1239       H  0.50053014  0.16503444  0.09426934     0.05950
C1240       C  0.00179847  0.05185465  0.25035414     0.02980
C1241       C  0.00271784  0.06720914  0.27695728    -0.13170
C1242       C  0.00285431  0.09770260  0.27708677     0.00480
C1243       C  0.00218693  0.11288252  0.25071492    -0.11690
C1244       C  0.00044759  0.09809861  0.22414555     0.02980
C1245       C  0.00080324  0.06756982  0.22392202    -0.11110
H1246       H  0.00281505  0.05563794  0.29752317     0.08570
H1247       H  0.00202621  0.13649807  0.25092687     0.06100
H1248       H  0.99946826  0.05623024  0.20329049     0.05950
C1249       C  0.75031719  0.46138254  0.41036846     0.02980
C1250       C  0.72381885  0.46219057  0.39474804    -0.13170
C1251       C  0.72392465  0.46349142  0.36424789     0.00480
C1252       C  0.75043770  0.46337337  0.34926890    -0.11690
C1253       C  0.77685618  0.46235465  0.36437551     0.02980
C1254       C  0.77685804  0.46116623  0.39488127    -0.11110
H1255       H  0.70317409  0.46252214  0.40615353     0.08570
H1256       H  0.75051804  0.46439934  0.32566460     0.06100
H1257       H  0.79748055  0.46062726  0.40638407     0.05950
C1258       C  0.91038039  0.46203398  0.25034465     0.02980
C1259       C  0.89488007  0.46165860  0.27684875    -0.13170
C1260       C  0.86435197  0.46024160  0.27685040     0.00480
C1261       C  0.84921198  0.45954992  0.25041625    -0.11690
C1262       C  0.86419541  0.46036255  0.22393545     0.02980
C1263       C  0.89472662  0.46185199  0.22387640    -0.11110
H1264       H  0.90638033  0.46230083  0.29745983     0.08570
H1265       H  0.82558042  0.45886879  0.25045391     0.06100
H1266       H  0.90611354  0.46270742  0.20324328     0.05950
C1267       C  0.75009154  0.46175118  0.09014272     0.02980
C1268       C  0.77652952  0.46181412  0.10587124    -0.13170
C1269       C  0.77631048  0.46211919  0.13640589     0.00480
C1270       C  0.74977779  0.46157987  0.15130216    -0.11690
C1271       C  0.72341212  0.46114311  0.13604090     0.02980
C1272       C  0.72351834  0.46165546  0.10552454    -0.11110
H1273       H  0.79722205  0.46210488  0.09454987     0.08570
H1274       H  0.74964765  0.46171378  0.17492376     0.06100
H1275       H  0.70292684  0.46177957  0.09394620     0.05950
C1276       C  0.59024565  0.46114868  0.25017129     0.02980
C1277       C  0.60600127  0.46148181  0.27659000    -0.13170
C1278       C  0.63655211  0.46211195  0.27632562     0.00480
C1279       C  0.65136998  0.46244822  0.24974339    -0.11690
C1280       C  0.63608513  0.46198702  0.22343857     0.02980
C1281       C  0.60558560  0.46107981  0.22357818    -0.11110
H1282       H  0.59469502  0.46166996  0.29728301     0.08570
H1283       H  0.67499956  0.46321195  0.24951901     0.06100
H1284       H  0.59398266  0.46088663  0.20301580     0.05950
O1285       O  0.54420398  0.46165157  0.27445052    -0.73090
O1286       O  0.95666534  0.46230997  0.27443848    -0.74070
O1287       O  0.00033137  0.41835993  0.27448934    -0.62690
O1288       O  0.00090235  0.00569845  0.27439514    -0.71100
O1289       O  0.00071823  0.00579343  0.22610256    -0.70650
O1290       O  0.00016223  0.41836883  0.22619375    -0.61910
O1291       O  0.95652910  0.46234884  0.22615145    -0.74410
O1292       O  0.54402366  0.46169320  0.22615362    -0.73190
Cu1293     Cu  0.00048292  0.46202300  0.27611047     1.04560
Cu1294     Cu  0.00031685  0.46206610  0.22447544     1.04330
C1295       C  0.55798581  0.46146848  0.25027568     0.93110
C1296       C  0.94269759  0.46234337  0.25030964     0.92250
C1297       C  0.00046574  0.40450345  0.25035421     0.84390
C1298       C  0.00110462  0.01961193  0.25026453     0.90670
O1299       O  0.72604278  0.46190535  0.04391463    -0.73090
O1300       O  0.72610572  0.46164837  0.45646018    -0.74070
O1301       O  0.72608624  0.41813428  0.00035960    -0.62690
O1302       O  0.72603994  0.00557525  0.00008960    -0.71100
O1303       O  0.77435486  0.00562305  0.00021202    -0.70650
O1304       O  0.77440700  0.41815911  0.00051799    -0.61910
O1305       O  0.77442307  0.46165031  0.45659480    -0.74410
O1306       O  0.77436212  0.46196138  0.04408179    -0.73190
Cu1307     Cu  0.72439741  0.46182845  0.00019401     1.04560
Cu1308     Cu  0.77605881  0.46186373  0.00034631     1.04330
C1309       C  0.75017837  0.46189649  0.05787504     0.93110
C1310       C  0.75028065  0.46150458  0.44264661     0.92250
C1311       C  0.75025284  0.40427877  0.00050355     0.84390
C1312       C  0.75018330  0.01948320  0.00018703     0.90670
O1313       O  0.00046612  0.23623400  0.04391176    -0.73090
O1314       O  0.00036571  0.23615051  0.45645065    -0.74070
O1315       O  0.95651777  0.23615305  0.00020735    -0.62690
O1316       O  0.54407908  0.23617341  0.00022665    -0.71100
O1317       O  0.54410565  0.18789746  0.00036271    -0.70650
O1318       O  0.95659332  0.18788493  0.00033054    -0.61910
O1319       O  0.00043277  0.18787802  0.45661623    -0.74410
O1320       O  0.00050299  0.18795929  0.04402995    -0.73190
Cu1321     Cu  0.00033404  0.23785265  0.00018815     1.04560
Cu1322     Cu  0.00038301  0.18624019  0.00032795     1.04330
C1323       C  0.00065806  0.21211765  0.05784320     0.93110
C1324       C  0.00052567  0.21197990  0.44265761     0.92250
C1325       C  0.94265601  0.21199460  0.00033063     0.84390
C1326       C  0.55797137  0.21203872  0.00033422     0.90670
C1327       C  0.65274386  0.46292481  0.19607039    -0.06270
C1328       C  0.66059560  0.43647212  0.18304997    -0.17400
C1329       C  0.68211284  0.43543918  0.16148688     0.10930
C1330       C  0.69602511  0.46144939  0.15274496    -0.06190
C1331       C  0.68698137  0.48805740  0.16463401    -0.17430
C1332       C  0.66548896  0.48908039  0.18615286     0.10960
S1333       S  0.69301659  0.40006731  0.14840310    -0.32390
S1334       S  0.65717579  0.02405122  0.20197089    -0.32400
H1335       H  0.62860945  0.01715784  0.21056536     0.28970
H1336       H  0.70184405  0.40928186  0.12062807     0.28960
H1337       H  0.65122386  0.41632222  0.19103167     0.19560
H1338       H  0.69793877  0.00799212  0.15829086     0.19560
C1339       C  0.80352250  0.46337885  0.15347086    -0.06270
C1340       C  0.81819707  0.43727052  0.15947927    -0.17400
C1341       C  0.83989766  0.43599419  0.18095395     0.10930
C1342       C  0.84712749  0.46142835  0.19668900    -0.06190
C1343       C  0.83354379  0.48783450  0.18949612    -0.17430
C1344       C  0.81189942  0.48909591  0.16806889     0.10960
S1345       S  0.85508118  0.40075658  0.18938659    -0.32390
S1346       S  0.79412109  0.02362759  0.16201611    -0.32400
H1347       H  0.78584696  0.01818229  0.13303139     0.28970
H1348       H  0.88235286  0.41082401  0.19887473     0.28960
H1349       H  0.81144440  0.41740880  0.14865331     0.19560
H1350       H  0.83875436  0.00731224  0.20177853     0.19560
C1351       C  0.84747703  0.46103556  0.30415686    -0.06270
C1352       C  0.83514627  0.48771195  0.31241232    -0.17400
C1353       C  0.81365262  0.48906246  0.33392769     0.10930
C1354       C  0.80417126  0.46316010  0.34752339    -0.06190
C1355       C  0.81763196  0.43668731  0.34044540    -0.17430
C1356       C  0.83917382  0.43533339  0.31889102     0.10960
S1357       S  0.79744931  0.02408626  0.34131936    -0.32390
S1358       S  0.85288757  0.39986779  0.30910708    -0.32400
H1359       H  0.88032109  0.40927797  0.29943085     0.28970
H1360       H  0.78848237  0.01775472  0.36989348     0.28960
H1361       H  0.84117808  0.00741365  0.30087471     0.19560
H1362       H  0.81002515  0.41671184  0.35047292     0.19560
C1363       C  0.69669229  0.46582991  0.34726853    -0.06270
C1364       C  0.67904199  0.44106317  0.34410656    -0.17400
C1365       C  0.65781036  0.43965280  0.32212466     0.10930
C1366       C  0.65383775  0.46378359  0.30338538    -0.06190
C1367       C  0.66989987  0.48929611  0.30820977    -0.17430
C1368       C  0.69109791  0.49063576  0.32997737     0.10960
S1369       S  0.63819880  0.40585348  0.31786910    -0.32390
S1370       S  0.71155702  0.02401808  0.33344593    -0.32400
H1371       H  0.71906881  0.02025964  0.36292521     0.28970
H1372       H  0.63550829  0.40698954  0.28739587     0.28960
H1373       H  0.68334960  0.42195582  0.35730267     0.19560
H1374       H  0.66677199  0.00791269  0.29400668     0.19560
C1375       C  0.99910056  0.15872517  0.15368068    -0.06270
C1376       C  0.97529229  0.15689379  0.17273418    -0.17400
C1377       C  0.97392206  0.13550864  0.19423510     0.10930
C1378       C  0.99700281  0.11534939  0.19712382    -0.06190
C1379       C  0.51946038  0.11531356  0.17635809    -0.17430
C1380       C  0.52090226  0.13697268  0.15477276     0.10960
S1381       S  0.94288341  0.13614622  0.21836677    -0.32390
S1382       S  0.55209687  0.13686023  0.13093543    -0.32400
H1383       H  0.55526131  0.16726184  0.12939670     0.28970
H1384       H  0.94370764  0.10634378  0.22541192     0.28960
H1385       H  0.95820194  0.17317453  0.17168163     0.19560
H1386       H  0.53713827  0.09978663  0.17837393     0.19560
C1387       C  0.99872361  0.26576326  0.15348837    -0.06270
C1388       C  0.97543007  0.26706856  0.17320027    -0.17400
C1389       C  0.97418776  0.28839134  0.19470737     0.10930
C1390       C  0.99690997  0.30904127  0.19696270    -0.06190
C1391       C  0.51866123  0.30970372  0.17547188    -0.17430
C1392       C  0.51994389  0.28812114  0.15382647     0.10960
S1393       S  0.94381167  0.28701532  0.21965006    -0.32390
S1394       S  0.55025177  0.28915820  0.12890113    -0.32400
H1395       H  0.55449728  0.25887497  0.12769334     0.28970
H1396       H  0.94416229  0.31681589  0.22669082     0.28960
H1397       H  0.95867836  0.25040796  0.17266068     0.19560
H1398       H  0.53599474  0.32567908  0.17692648     0.19560
C1399       C  0.99952443  0.30891805  0.30393918    -0.06270
C1400       C  0.97493335  0.29091309  0.30594905    -0.17400
C1401       C  0.97285199  0.26944783  0.32728181     0.10930
C1402       C  0.49610451  0.26531201  0.34703964    -0.06190
C1403       C  0.51941984  0.28517062  0.34699321    -0.17430
C1404       C  0.52145240  0.30692681  0.32553559     0.10960
S1405       S  0.94039992  0.24730313  0.32732948    -0.32390
S1406       S  0.55324949  0.33001698  0.32593276    -0.32400
H1407       H  0.55568470  0.33318004  0.29559396     0.28970
H1408       H  0.94163849  0.23999611  0.35706640     0.28960
H1409       H  0.95765779  0.29283727  0.28990640     0.19560
H1410       H  0.53715544  0.28237968  0.36237092     0.19560
C1411       C  0.49802004  0.15759870  0.34790514    -0.06270
C1412       C  0.52324686  0.14059216  0.34474397    -0.17400
C1413       C  0.52502997  0.11917359  0.32301116     0.10930
C1414       C  0.50093872  0.11462149  0.30431977    -0.06190
C1415       C  0.97497105  0.12987581  0.30931277    -0.17430
C1416       C  0.97314853  0.15098528  0.33103805     0.10960
S1417       S  0.55906497  0.09985163  0.31927644    -0.32390
S1418       S  0.93886348  0.16970030  0.33520700    -0.32400
H1419       H  0.94306778  0.17773121  0.36446587     0.28970
H1420       H  0.55747773  0.09508506  0.28910351     0.28960
H1421       H  0.54232583  0.14545016  0.35782490     0.19560
H1422       H  0.95629353  0.12614042  0.29529142     0.19560
C1423       C  0.65325540  0.15842578  0.99887667    -0.06270
C1424       C  0.66045105  0.14467455  0.02519600    -0.17400
C1425       C  0.68181304  0.12291257  0.02622503     0.10930
C1426       C  0.69625578  0.11470408  0.00034135    -0.06190
C1427       C  0.68788113  0.12737431  0.47381727    -0.17430
C1428       C  0.66653204  0.14907441  0.47279686     0.10960
S1429       S  0.69184881  0.10889582  0.06154840    -0.32390
S1430       S  0.65900876  0.16574203  0.43798708    -0.32400
H1431       H  0.63030876  0.17426592  0.44439694     0.28970
H1432       H  0.70035760  0.08117374  0.05195396     0.28960
H1433       H  0.65064067  0.15217906  0.04530278     0.19560
H1434       H  0.69923239  0.12145605  0.45398956     0.19560
C1435       C  0.80375286  0.11485231  0.99902695    -0.06270
C1436       C  0.81765858  0.12184736  0.02532330    -0.17400
C1437       C  0.83935829  0.14328477  0.02639640     0.10930
C1438       C  0.84736452  0.15800199  0.00057543    -0.06190
C1439       C  0.83451276  0.14986538  0.47406941    -0.17430
C1440       C  0.81286830  0.12846077  0.47300765     0.10960
S1441       S  0.85352330  0.15305269  0.06172606    -0.32390
S1442       S  0.79595142  0.12128542  0.43824072    -0.32400
H1443       H  0.78755851  0.09251227  0.44445011     0.28970
H1444       H  0.88118761  0.16176723  0.05209063     0.28960
H1445       H  0.81031026  0.11182195  0.04539678     0.19560
H1446       H  0.84025412  0.16143217  0.45429612     0.19560
C1447       C  0.84715272  0.26538814  0.99868314    -0.06270
C1448       C  0.84115990  0.28019679  0.02468643    -0.17400
C1449       C  0.81973195  0.30190490  0.02575022     0.10930
C1450       C  0.80404860  0.30901675  0.00019062    -0.06190
C1451       C  0.81123937  0.29529585  0.47389070    -0.17430
C1452       C  0.83259533  0.27362855  0.47285191     0.10960
S1453       S  0.81116008  0.31708902  0.06092474    -0.32390
S1454       S  0.83855292  0.25561275  0.43845946    -0.32400
H1455       H  0.86753101  0.24733528  0.44401348     0.28970
H1456       H  0.80253385  0.34459113  0.05079541     0.28960
H1457       H  0.85192790  0.27352348  0.04463756     0.19560
H1458       H  0.79897261  0.30039080  0.45433410     0.19560
C1459       C  0.69654728  0.30913272  0.99942555    -0.06270
C1460       C  0.68342800  0.30122524  0.02582813    -0.17400
C1461       C  0.66180270  0.27973787  0.02675407     0.10930
C1462       C  0.65314103  0.26585863  0.00069371    -0.06190
C1463       C  0.66514484  0.27493379  0.47413129    -0.17430
C1464       C  0.68668160  0.29644686  0.47320650     0.10960
S1465       S  0.64849431  0.26886092  0.06207013    -0.32390
S1466       S  0.70254739  0.30488601  0.43827245    -0.32400
H1467       H  0.71097932  0.33347565  0.44518605     0.28970
H1468       H  0.62063405  0.26033858  0.05273094     0.28960
H1469       H  0.69132874  0.31058727  0.04602173     0.19560
H1470       H  0.65883820  0.26402572  0.45415480     0.19560
C1471       C  0.75026459  0.37203111  0.00067172     0.02980
C1472       C  0.72376516  0.35648341  0.00082444    -0.13170
C1473       C  0.72384171  0.32598016  0.00047311     0.00480
C1474       C  0.75028802  0.31090403  0.50081835    -0.11690
C1475       C  0.77675860  0.32596671  0.50105989     0.02980
C1476       C  0.77677170  0.35648941  0.50047559    -0.11110
H1477       H  0.70311899  0.36791813  0.00072210     0.08570
H1478       H  0.75026734  0.28729189  0.50063731     0.06100
H1479       H  0.79740307  0.36795526  0.50000554     0.05950
C1480       C  0.91033791  0.21191430  0.50053082     0.02980
C1481       C  0.89467915  0.23834716  0.50046706    -0.13170
C1482       C  0.86412780  0.23818021  0.50016623     0.00480
C1483       C  0.84912464  0.21170765  0.50075097    -0.11690
C1484       C  0.86427389  0.18531767  0.50116413     0.02980
C1485       C  0.89483519  0.18538068  0.50060966    -0.11110
H1486       H  0.90606811  0.25900309  0.50012526     0.08570
H1487       H  0.82548164  0.21164462  0.50057864     0.06100
H1488       H  0.90635350  0.16479976  0.50038231     0.05950
C1489       C  0.75013887  0.05176563  0.50034637     0.02980
C1490       C  0.72360213  0.06727617  0.00030341    -0.13170
C1491       C  0.72357716  0.09780147  0.50086767     0.00480
C1492       C  0.75000567  0.11292157  0.50058533    -0.11690
C1493       C  0.77648922  0.09790869  0.50016631     0.02980
C1494       C  0.77661765  0.06738294  0.50044144    -0.11110
H1495       H  0.70298018  0.05578707  0.00001525     0.08570
H1496       H  0.74996315  0.13653515  0.50045627     0.06100
H1497       H  0.79727974  0.05598331  0.50024737     0.05950
C1498       C  0.59024534  0.21204933  0.50044362     0.02980
C1499       C  0.60576458  0.23854287  0.50047002    -0.13170
C1500       C  0.63630348  0.23854113  0.50092691     0.00480
C1501       C  0.65143662  0.21213916  0.50046755    -0.11690
C1502       C  0.63637970  0.18569407  0.50000942     0.02980
C1503       C  0.60583959  0.18558776  0.50038861    -0.11110
H1504       H  0.59428037  0.25914637  0.50035898     0.08570
H1505       H  0.67507714  0.21217186  0.50030176     0.06100
H1506       H  0.59440983  0.16495163  0.50017285     0.05950
C1507       C  0.50064918  0.21185739  0.91039098     0.02980
C1508       C  0.50083704  0.18525371  0.89504765    -0.13170
C1509       C  0.49967450  0.18505497  0.86456710     0.00480
C1510       C  0.49896663  0.21143370  0.84933430    -0.11690
C1511       C  0.49855515  0.23807149  0.86415010     0.02980
C1512       C  0.49978399  0.23827324  0.89467120    -0.11110
H1513       H  0.50118315  0.16472124  0.90665816     0.08570
H1514       H  0.49817102  0.21120240  0.82572232     0.06100
H1515       H  0.49933239  0.25892419  0.90603014     0.05950
C1516       C  0.00120966  0.37227464  0.75039400     0.02980
C1517       C  0.00188462  0.35676528  0.77696051    -0.13170
C1518       C  0.00258749  0.32625676  0.77695836     0.00480
C1519       C  0.00286525  0.31132518  0.75044120    -0.11690
C1520       C  0.00074336  0.32621973  0.72395715     0.02980
C1521       C  0.00058722  0.35672878  0.72387859    -0.11110
H1522       H  0.00126402  0.36822207  0.79756237     0.08570
H1523       H  0.00319602  0.28770981  0.75047241     0.06100
H1524       H  0.99910792  0.36817098  0.70329698     0.05950
C1525       C  0.50121813  0.21216341  0.59009956     0.02980
C1526       C  0.50106642  0.23872461  0.60557781    -0.13170
C1527       C  0.50161440  0.23875767  0.63611614     0.00480
C1528       C  0.50251728  0.21224136  0.65108117    -0.11690
C1529       C  0.50182681  0.18570284  0.63622565     0.02980
C1530       C  0.50134680  0.18564264  0.60569316    -0.11110
H1531       H  0.49999554  0.25928245  0.59405541     0.08570
H1532       H  0.50279421  0.21224754  0.67470455     0.06100
H1533       H  0.50053013  0.16503444  0.59426934     0.05950
C1534       C  0.00179847  0.05185466  0.75035414     0.02980
C1535       C  0.00271784  0.06720914  0.77695728    -0.13170
C1536       C  0.00285430  0.09770260  0.77708677     0.00480
C1537       C  0.00218692  0.11288252  0.75071491    -0.11690
C1538       C  0.00044758  0.09809861  0.72414555     0.02980
C1539       C  0.00080324  0.06756982  0.72392201    -0.11110
H1540       H  0.00281506  0.05563794  0.79752317     0.08570
H1541       H  0.00202619  0.13649807  0.75092686     0.06100
H1542       H  0.99946825  0.05623024  0.70329049     0.05950
C1543       C  0.75031719  0.46138253  0.91036846     0.02980
C1544       C  0.72381885  0.46219057  0.89474804    -0.13170
C1545       C  0.72392465  0.46349142  0.86424789     0.00480
C1546       C  0.75043770  0.46337336  0.84926890    -0.11690
C1547       C  0.77685618  0.46235464  0.86437551     0.02980
C1548       C  0.77685803  0.46116622  0.89488126    -0.11110
H1549       H  0.70317409  0.46252214  0.90615353     0.08570
H1550       H  0.75051804  0.46439933  0.82566459     0.06100
H1551       H  0.79748055  0.46062725  0.90638406     0.05950
C1552       C  0.91038039  0.46203398  0.75034465     0.02980
C1553       C  0.89488008  0.46165859  0.77684876    -0.13170
C1554       C  0.86435198  0.46024160  0.77685040     0.00480
C1555       C  0.84921199  0.45954991  0.75041625    -0.11690
C1556       C  0.86419541  0.46036254  0.72393545     0.02980
C1557       C  0.89472662  0.46185198  0.72387640    -0.11110
H1558       H  0.90638033  0.46230082  0.79745983     0.08570
H1559       H  0.82558042  0.45886878  0.75045391     0.06100
H1560       H  0.90611355  0.46270741  0.70324328     0.05950
C1561       C  0.75009154  0.46175117  0.59014273     0.02980
C1562       C  0.77652952  0.46181411  0.60587125    -0.13170
C1563       C  0.77631048  0.46211918  0.63640590     0.00480
C1564       C  0.74977779  0.46157986  0.65130216    -0.11690
C1565       C  0.72341212  0.46114310  0.63604090     0.02980
C1566       C  0.72351834  0.46165545  0.60552454    -0.11110
H1567       H  0.79722205  0.46210487  0.59454988     0.08570
H1568       H  0.74964765  0.46171377  0.67492377     0.06100
H1569       H  0.70292684  0.46177956  0.59394620     0.05950
C1570       C  0.59024564  0.46114867  0.75017129     0.02980
C1571       C  0.60600127  0.46148181  0.77659000    -0.13170
C1572       C  0.63655211  0.46211194  0.77632562     0.00480
C1573       C  0.65136998  0.46244821  0.74974339    -0.11690
C1574       C  0.63608512  0.46198701  0.72343857     0.02980
C1575       C  0.60558560  0.46107981  0.72357818    -0.11110
H1576       H  0.59469502  0.46166995  0.79728301     0.08570
H1577       H  0.67499956  0.46321195  0.74951901     0.06100
H1578       H  0.59398266  0.46088662  0.70301580     0.05950
O1579       O  0.54420398  0.46165157  0.77445052    -0.73090
O1580       O  0.95666534  0.46230997  0.77443848    -0.74070
O1581       O  0.00033138  0.41835993  0.77448934    -0.62690
O1582       O  0.00090236  0.00569845  0.77439515    -0.71100
O1583       O  0.00071824  0.00579343  0.72610256    -0.70650
O1584       O  0.00016223  0.41836882  0.72619375    -0.61910
O1585       O  0.95652910  0.46234883  0.72615145    -0.74410
O1586       O  0.54402366  0.46169320  0.72615362    -0.73190
Cu1587     Cu  0.00048292  0.46202299  0.77611047     1.04560
Cu1588     Cu  0.00031685  0.46206610  0.72447544     1.04330
C1589       C  0.55798581  0.46146847  0.75027568     0.93110
C1590       C  0.94269760  0.46234336  0.75030964     0.92250
C1591       C  0.00046574  0.40450345  0.75035422     0.84390
C1592       C  0.00110462  0.01961193  0.75026454     0.90670
O1593       O  0.72604277  0.46190534  0.54391464    -0.73090
O1594       O  0.72610572  0.46164837  0.95646018    -0.74070
O1595       O  0.72608624  0.41813428  0.50035960    -0.62690
O1596       O  0.72603993  0.00557524  0.50008960    -0.71100
O1597       O  0.77435486  0.00562305  0.50021202    -0.70650
O1598       O  0.77440699  0.41815911  0.50051799    -0.61910
O1599       O  0.77442307  0.46165031  0.95659479    -0.74410
O1600       O  0.77436212  0.46196138  0.54408179    -0.73190
Cu1601     Cu  0.72439741  0.46182845  0.50019401     1.04560
Cu1602     Cu  0.77605881  0.46186373  0.50034632     1.04330
C1603       C  0.75017837  0.46189649  0.55787505     0.93110
C1604       C  0.75028065  0.46150458  0.94264660     0.92250
C1605       C  0.75025284  0.40427877  0.50050356     0.84390
C1606       C  0.75018330  0.01948319  0.50018703     0.90670
O1607       O  0.00046611  0.23623400  0.54391176    -0.73090
O1608       O  0.00036571  0.23615051  0.95645065    -0.74070
O1609       O  0.95651776  0.23615305  0.50020735    -0.62690
O1610       O  0.54407907  0.23617341  0.50022665    -0.71100
O1611       O  0.54410565  0.18789747  0.50036271    -0.70650
O1612       O  0.95659332  0.18788493  0.50033053    -0.61910
O1613       O  0.00043278  0.18787802  0.95661623    -0.74410
O1614       O  0.00050298  0.18795928  0.54402995    -0.73190
Cu1615     Cu  0.00033403  0.23785265  0.50018815     1.04560
Cu1616     Cu  0.00038300  0.18624019  0.50032795     1.04330
C1617       C  0.00065805  0.21211765  0.55784320     0.93110
C1618       C  0.00052567  0.21197990  0.94265761     0.92250
C1619       C  0.94265600  0.21199460  0.50033062     0.84390
C1620       C  0.55797136  0.21203872  0.50033422     0.90670
C1621       C  0.65274386  0.46292481  0.69607040    -0.06270
C1622       C  0.66059560  0.43647211  0.68304997    -0.17400
C1623       C  0.68211284  0.43543917  0.66148688     0.10930
C1624       C  0.69602511  0.46144938  0.65274497    -0.06190
C1625       C  0.68698137  0.48805739  0.66463401    -0.17430
C1626       C  0.66548895  0.48908039  0.68615286     0.10960
S1627       S  0.69301659  0.40006730  0.64840311    -0.32390
S1628       S  0.65717578  0.02405121  0.70197088    -0.32400
H1629       H  0.62860945  0.01715784  0.71056535     0.28970
H1630       H  0.70184406  0.40928185  0.62062808     0.28960
H1631       H  0.65122386  0.41632222  0.69103167     0.19560
H1632       H  0.69793877  0.00799212  0.65829086     0.19560
C1633       C  0.80352250  0.46337884  0.65347087    -0.06270
C1634       C  0.81819707  0.43727051  0.65947928    -0.17400
C1635       C  0.83989766  0.43599419  0.68095396     0.10930
C1636       C  0.84712750  0.46142834  0.69668901    -0.06190
C1637       C  0.83354380  0.48783449  0.68949612    -0.17430
C1638       C  0.81189942  0.48909590  0.66806889     0.10960
S1639       S  0.85508118  0.40075657  0.68938660    -0.32390
S1640       S  0.79412109  0.02362760  0.66201611    -0.32400
H1641       H  0.78584696  0.01818229  0.63303139     0.28970
H1642       H  0.88235286  0.41082400  0.69887474     0.28960
H1643       H  0.81144440  0.41740879  0.64865331     0.19560
H1644       H  0.83875437  0.00731224  0.70177853     0.19560
C1645       C  0.84747703  0.46103555  0.80415686    -0.06270
C1646       C  0.83514629  0.48771194  0.81241234    -0.17400
C1647       C  0.81365264  0.48906245  0.83392771     0.10930
C1648       C  0.80417126  0.46316008  0.84752338    -0.06190
C1649       C  0.81763194  0.43668729  0.84044538    -0.17430
C1650       C  0.83917380  0.43533337  0.81889100     0.10960
S1651       S  0.79744936  0.02408625  0.84131941    -0.32390
S1652       S  0.85288752  0.39986777  0.80910703    -0.32400
H1653       H  0.88032106  0.40927794  0.79943082     0.28970
H1654       H  0.78848242  0.01775470  0.86989353     0.28960
H1655       H  0.84117813  0.00741364  0.80087475     0.19560
H1656       H  0.81002511  0.41671182  0.85047288     0.19560
C1657       C  0.69669229  0.46582990  0.84726853    -0.06270
C1658       C  0.67904200  0.44106316  0.84410655    -0.17400
C1659       C  0.65781036  0.43965279  0.82212466     0.10930
C1660       C  0.65383775  0.46378359  0.80338538    -0.06190
C1661       C  0.66989987  0.48929611  0.80820978    -0.17430
C1662       C  0.69109790  0.49063576  0.82997737     0.10960
S1663       S  0.63819881  0.40585347  0.81786909    -0.32390
S1664       S  0.71155703  0.02401807  0.83344592    -0.32400
H1665       H  0.71906882  0.02025963  0.86292521     0.28970
H1666       H  0.63550829  0.40698954  0.78739586     0.28960
H1667       H  0.68334960  0.42195581  0.85730266     0.19560
H1668       H  0.66677200  0.00791269  0.79400667     0.19560
C1669       C  0.99910055  0.15872516  0.65368067    -0.06270
C1670       C  0.97529228  0.15689379  0.67273418    -0.17400
C1671       C  0.97392205  0.13550864  0.69423510     0.10930
C1672       C  0.99700280  0.11534939  0.69712381    -0.06190
C1673       C  0.51946037  0.11531356  0.67635808    -0.17430
C1674       C  0.52090224  0.13697268  0.65477275     0.10960
S1675       S  0.94288340  0.13614623  0.71836678    -0.32390
S1676       S  0.55209686  0.13686022  0.63093542    -0.32400
H1677       H  0.55526130  0.16726183  0.62939668     0.28970
H1678       H  0.94370763  0.10634379  0.72541193     0.28960
H1679       H  0.95820194  0.17317453  0.67168163     0.19560
H1680       H  0.53713825  0.09978663  0.67837392     0.19560
C1681       C  0.99872361  0.26576325  0.65348837    -0.06270
C1682       C  0.97543007  0.26706855  0.67320027    -0.17400
C1683       C  0.97418777  0.28839134  0.69470738     0.10930
C1684       C  0.99690998  0.30904127  0.69696271    -0.06190
C1685       C  0.51866121  0.30970372  0.67547188    -0.17430
C1686       C  0.51994388  0.28812114  0.65382647     0.10960
S1687       S  0.94381167  0.28701531  0.71965007    -0.32390
S1688       S  0.55025175  0.28915821  0.62890113    -0.32400
H1689       H  0.55449727  0.25887498  0.62769333     0.28970
H1690       H  0.94416230  0.31681588  0.72669083     0.28960
H1691       H  0.95867836  0.25040795  0.67266069     0.19560
H1692       H  0.53599472  0.32567909  0.67692648     0.19560
C1693       C  0.99952444  0.30891805  0.80393919    -0.06270
C1694       C  0.97493335  0.29091310  0.80594906    -0.17400
C1695       C  0.97285199  0.26944784  0.82728182     0.10930
C1696       C  0.49610450  0.26531200  0.84703964    -0.06190
C1697       C  0.51941983  0.28517061  0.84699321    -0.17430
C1698       C  0.52145239  0.30692680  0.82553559     0.10960
S1699       S  0.94039991  0.24730315  0.82732950    -0.32390
S1700       S  0.55324949  0.33001696  0.82593275    -0.32400
H1701       H  0.55568469  0.33318003  0.79559395     0.28970
H1702       H  0.94163849  0.23999613  0.85706642     0.28960
H1703       H  0.95765778  0.29283728  0.78990641     0.19560
H1704       H  0.53715544  0.28237967  0.86237091     0.19560
C1705       C  0.49802001  0.15759870  0.84790514    -0.06270
C1706       C  0.52324683  0.14059215  0.84474398    -0.17400
C1707       C  0.52502995  0.11917358  0.82301116     0.10930
C1708       C  0.50093870  0.11462149  0.80431977    -0.06190
C1709       C  0.97497105  0.12987582  0.80931276    -0.17430
C1710       C  0.97314852  0.15098529  0.83103804     0.10960
S1711       S  0.55906494  0.09985161  0.81927646    -0.32390
S1712       S  0.93886348  0.16970033  0.83520699    -0.32400
H1713       H  0.94306777  0.17773122  0.86446585     0.28970
H1714       H  0.55747771  0.09508507  0.78910353     0.28960
H1715       H  0.54232580  0.14545014  0.85782491     0.19560
H1716       H  0.95629353  0.12614044  0.79529141     0.19560
C1717       C  0.65325539  0.15842578  0.49887667    -0.06270
C1718       C  0.66045103  0.14467453  0.52519599    -0.17400
C1719       C  0.68181301  0.12291255  0.52622503     0.10930
C1720       C  0.69625577  0.11470408  0.50034135    -0.06190
C1721       C  0.68788112  0.12737430  0.97381727    -0.17430
C1722       C  0.66653203  0.14907439  0.97279686     0.10960
S1723       S  0.69184876  0.10889579  0.56154839    -0.32390
S1724       S  0.65900873  0.16574200  0.93798708    -0.32400
H1725       H  0.63030873  0.17426589  0.94439694     0.28970
H1726       H  0.70035755  0.08117371  0.55195395     0.28960
H1727       H  0.65064063  0.15217903  0.54530277     0.19560
H1728       H  0.69923237  0.12145603  0.95398956     0.19560
C1729       C  0.80375286  0.11485231  0.49902695    -0.06270
C1730       C  0.81765858  0.12184736  0.52532330    -0.17400
C1731       C  0.83935829  0.14328477  0.52639640     0.10930
C1732       C  0.84736452  0.15800199  0.50057543    -0.06190
C1733       C  0.83451277  0.14986538  0.97406941    -0.17430
C1734       C  0.81286831  0.12846077  0.97300765     0.10960
S1735       S  0.85352330  0.15305269  0.56172605    -0.32390
S1736       S  0.79595144  0.12128542  0.93824072    -0.32400
H1737       H  0.78755853  0.09251228  0.94445010     0.28970
H1738       H  0.88118761  0.16176722  0.55209062     0.28960
H1739       H  0.81031026  0.11182195  0.54539678     0.19560
H1740       H  0.84025414  0.16143217  0.95429613     0.19560
C1741       C  0.84715272  0.26538814  0.49868313    -0.06270
C1742       C  0.84115990  0.28019679  0.52468642    -0.17400
C1743       C  0.81973194  0.30190490  0.52575021     0.10930
C1744       C  0.80404860  0.30901674  0.50019062    -0.06190
C1745       C  0.81123937  0.29529585  0.97389070    -0.17430
C1746       C  0.83259534  0.27362856  0.97285192     0.10960
S1747       S  0.81116008  0.31708901  0.56092474    -0.32390
S1748       S  0.83855293  0.25561275  0.93845947    -0.32400
H1749       H  0.86753102  0.24733528  0.94401349     0.28970
H1750       H  0.80253385  0.34459112  0.55079541     0.28960
H1751       H  0.85192790  0.27352347  0.54463755     0.19560
H1752       H  0.79897261  0.30039080  0.95433411     0.19560
C1753       C  0.69654728  0.30913272  0.49942556    -0.06270
C1754       C  0.68342801  0.30122522  0.52582814    -0.17400
C1755       C  0.66180272  0.27973785  0.52675409     0.10930
C1756       C  0.65314102  0.26585863  0.50069372    -0.06190
C1757       C  0.66514486  0.27493377  0.97413128    -0.17430
C1758       C  0.68668162  0.29644684  0.97320649     0.10960
S1759       S  0.64849435  0.26886088  0.56207014    -0.32390
S1760       S  0.70254744  0.30488597  0.93827244    -0.32400
H1761       H  0.71097936  0.33347562  0.94518603     0.28970
H1762       H  0.62063409  0.26033853  0.55273097     0.28960
H1763       H  0.69132877  0.31058724  0.54602174     0.19560
H1764       H  0.65883824  0.26402569  0.95415479     0.19560
C1765       C  0.75026459  0.87203111  0.50067173     0.02980
C1766       C  0.72376516  0.85648341  0.50082445    -0.13170
C1767       C  0.72384171  0.82598016  0.50047312     0.00480
C1768       C  0.75028802  0.81090404  0.00081835    -0.11690
C1769       C  0.77675860  0.82596672  0.00105989     0.02980
C1770       C  0.77677170  0.85648942  0.00047559    -0.11110
H1771       H  0.70311899  0.86791813  0.50072211     0.08570
H1772       H  0.75026734  0.78729189  0.00063730     0.06100
H1773       H  0.79740307  0.86795527  0.00000555     0.05950
C1774       C  0.91033791  0.71191430  0.00053082     0.02980
C1775       C  0.89467915  0.73834716  0.00046707    -0.13170
C1776       C  0.86412780  0.73818021  0.00016625     0.00480
C1777       C  0.84912464  0.71170766  0.00075098    -0.11690
C1778       C  0.86427390  0.68531768  0.00116414     0.02980
C1779       C  0.89483520  0.68538068  0.00060966    -0.11110
H1780       H  0.90606812  0.75900310  0.00012528     0.08570
H1781       H  0.82548165  0.71164463  0.00057866     0.06100
H1782       H  0.90635351  0.66479977  0.00038231     0.05950
C1783       C  0.75013887  0.55176563  0.00034636     0.02980
C1784       C  0.72360212  0.56727616  0.50030342    -0.13170
C1785       C  0.72357717  0.59780147  0.00086766     0.00480
C1786       C  0.75000567  0.61292157  0.00058532    -0.11690
C1787       C  0.77648922  0.59790869  0.00016630     0.02980
C1788       C  0.77661765  0.56738293  0.00044143    -0.11110
H1789       H  0.70298017  0.55578706  0.50001525     0.08570
H1790       H  0.74996316  0.63653515  0.00045626     0.06100
H1791       H  0.79727974  0.55598331  0.00024735     0.05950
C1792       C  0.59024534  0.71204933  0.00044362     0.02980
C1793       C  0.60576458  0.73854287  0.00047001    -0.13170
C1794       C  0.63630349  0.73854112  0.00092690     0.00480
C1795       C  0.65143662  0.71213915  0.00046754    -0.11690
C1796       C  0.63637970  0.68569407  0.00000942     0.02980
C1797       C  0.60583959  0.68558776  0.00038860    -0.11110
H1798       H  0.59428037  0.75914637  0.00035897     0.08570
H1799       H  0.67507714  0.71217186  0.00030176     0.06100
H1800       H  0.59440984  0.66495162  0.00017285     0.05950
C1801       C  0.50064919  0.71185739  0.41039098     0.02980
C1802       C  0.50083705  0.68525371  0.39504765    -0.13170
C1803       C  0.49967451  0.68505498  0.36456710     0.00480
C1804       C  0.49896664  0.71143370  0.34933430    -0.11690
C1805       C  0.49855516  0.73807149  0.36415010     0.02980
C1806       C  0.49978399  0.73827324  0.39467119    -0.11110
H1807       H  0.50118316  0.66472124  0.40665816     0.08570
H1808       H  0.49817104  0.71120240  0.32572232     0.06100
H1809       H  0.49933238  0.75892419  0.40603013     0.05950
C1810       C  0.00120965  0.87227463  0.25039400     0.02980
C1811       C  0.00188461  0.85676527  0.27696051    -0.13170
C1812       C  0.00258748  0.82625676  0.27695836     0.00480
C1813       C  0.00286525  0.81132517  0.25044119    -0.11690
C1814       C  0.00074335  0.82621973  0.22395714     0.02980
C1815       C  0.00058721  0.85672878  0.22387859    -0.11110
H1816       H  0.00126401  0.86822206  0.29756237     0.08570
H1817       H  0.00319602  0.78770981  0.25047240     0.06100
H1818       H  0.99910792  0.86817098  0.20329697     0.05950
C1819       C  0.50121814  0.71216341  0.09009956     0.02980
C1820       C  0.50106642  0.73872461  0.10557781    -0.13170
C1821       C  0.50161440  0.73875767  0.13611614     0.00480
C1822       C  0.50251729  0.71224136  0.15108117    -0.11690
C1823       C  0.50182681  0.68570284  0.13622565     0.02980
C1824       C  0.50134681  0.68564264  0.10569316    -0.11110
H1825       H  0.49999554  0.75928245  0.09405541     0.08570
H1826       H  0.50279421  0.71224754  0.17470455     0.06100
H1827       H  0.50053014  0.66503444  0.09426934     0.05950
C1828       C  0.00179848  0.55185466  0.25035413     0.02980
C1829       C  0.00271785  0.56720914  0.27695728    -0.13170
C1830       C  0.00285431  0.59770260  0.27708677     0.00480
C1831       C  0.00218693  0.61288252  0.25071491    -0.11690
C1832       C  0.00044760  0.59809861  0.22414555     0.02980
C1833       C  0.00080325  0.56756982  0.22392201    -0.11110
H1834       H  0.00281506  0.55563794  0.29752317     0.08570
H1835       H  0.00202621  0.63649807  0.25092686     0.06100
H1836       H  0.99946827  0.55623024  0.20329049     0.05950
C1837       C  0.75031719  0.96138254  0.41036846     0.02980
C1838       C  0.72381884  0.96219059  0.39474804    -0.13170
C1839       C  0.72392464  0.96349144  0.36424789     0.00480
C1840       C  0.75043770  0.96337338  0.34926890    -0.11690
C1841       C  0.77685618  0.96235465  0.36437551     0.02980
C1842       C  0.77685803  0.96116623  0.39488127    -0.11110
H1843       H  0.70317409  0.96252216  0.40615353     0.08570
H1844       H  0.75051803  0.96439935  0.32566460     0.06100
H1845       H  0.79748054  0.96062725  0.40638407     0.05950
C1846       C  0.91038038  0.96203397  0.25034465     0.02980
C1847       C  0.89488007  0.96165858  0.27684876    -0.13170
C1848       C  0.86435197  0.96024159  0.27685040     0.00480
C1849       C  0.84921198  0.95954990  0.25041625    -0.11690
C1850       C  0.86419540  0.96036254  0.22393545     0.02980
C1851       C  0.89472661  0.96185197  0.22387640    -0.11110
H1852       H  0.90638032  0.96230081  0.29745983     0.08570
H1853       H  0.82558041  0.95886877  0.25045391     0.06100
H1854       H  0.90611354  0.96270740  0.20324328     0.05950
C1855       C  0.75009153  0.96175118  0.09014272     0.02980
C1856       C  0.77652952  0.96181411  0.10587124    -0.13170
C1857       C  0.77631048  0.96211919  0.13640589     0.00480
C1858       C  0.74977779  0.96157987  0.15130216    -0.11690
C1859       C  0.72341212  0.96114311  0.13604090     0.02980
C1860       C  0.72351834  0.96165546  0.10552454    -0.11110
H1861       H  0.79722205  0.96210487  0.09454987     0.08570
H1862       H  0.74964765  0.96171378  0.17492376     0.06100
H1863       H  0.70292684  0.96177958  0.09394619     0.05950
C1864       C  0.59024564  0.96114869  0.25017129     0.02980
C1865       C  0.60600127  0.96148183  0.27659000    -0.13170
C1866       C  0.63655211  0.96211197  0.27632562     0.00480
C1867       C  0.65136998  0.96244825  0.24974339    -0.11690
C1868       C  0.63608512  0.96198704  0.22343857     0.02980
C1869       C  0.60558560  0.96107982  0.22357818    -0.11110
H1870       H  0.59469502  0.96166998  0.29728301     0.08570
H1871       H  0.67499955  0.96321199  0.24951900     0.06100
H1872       H  0.59398265  0.96088663  0.20301580     0.05950
O1873       O  0.54420398  0.96165157  0.27445052    -0.73090
O1874       O  0.95666534  0.96230996  0.27443848    -0.74070
O1875       O  0.00033137  0.91835993  0.27448934    -0.62690
O1876       O  0.00090236  0.50569846  0.27439514    -0.71100
O1877       O  0.00071823  0.50579343  0.22610256    -0.70650
O1878       O  0.00016223  0.91836882  0.22619375    -0.61910
O1879       O  0.95652910  0.96234883  0.22615145    -0.74410
O1880       O  0.54402366  0.96169320  0.22615362    -0.73190
Cu1881     Cu  0.00048292  0.96202299  0.27611047     1.04560
Cu1882     Cu  0.00031684  0.96206610  0.22447544     1.04330
C1883       C  0.55798580  0.96146848  0.25027568     0.93110
C1884       C  0.94269759  0.96234336  0.25030964     0.92250
C1885       C  0.00046574  0.90450345  0.25035422     0.84390
C1886       C  0.00110462  0.51961193  0.25026453     0.90670
O1887       O  0.72604277  0.96190535  0.04391463    -0.73090
O1888       O  0.72610572  0.96164837  0.45646018    -0.74070
O1889       O  0.72608624  0.91813428  0.00035960    -0.62690
O1890       O  0.72603993  0.50557524  0.00008960    -0.71100
O1891       O  0.77435486  0.50562305  0.00021202    -0.70650
O1892       O  0.77440699  0.91815911  0.00051799    -0.61910
O1893       O  0.77442306  0.96165032  0.45659480    -0.74410
O1894       O  0.77436212  0.96196139  0.04408179    -0.73190
Cu1895     Cu  0.72439741  0.96182846  0.00019401     1.04560
Cu1896     Cu  0.77605881  0.96186374  0.00034631     1.04330
C1897       C  0.75017837  0.96189650  0.05787504     0.93110
C1898       C  0.75028065  0.96150458  0.44264661     0.92250
C1899       C  0.75025284  0.90427878  0.00050356     0.84390
C1900       C  0.75018330  0.51948319  0.00018703     0.90670
O1901       O  0.00046611  0.73623400  0.04391176    -0.73090
O1902       O  0.00036570  0.73615051  0.45645065    -0.74070
O1903       O  0.95651776  0.73615305  0.00020735    -0.62690
O1904       O  0.54407908  0.73617341  0.00022664    -0.71100
O1905       O  0.54410565  0.68789746  0.00036270    -0.70650
O1906       O  0.95659332  0.68788493  0.00033054    -0.61910
O1907       O  0.00043277  0.68787801  0.45661623    -0.74410
O1908       O  0.00050298  0.68795929  0.04402995    -0.73190
Cu1909     Cu  0.00033403  0.73785265  0.00018815     1.04560
Cu1910     Cu  0.00038300  0.68624019  0.00032795     1.04330
C1911       C  0.00065806  0.71211765  0.05784320     0.93110
C1912       C  0.00052566  0.71197990  0.44265761     0.92250
C1913       C  0.94265601  0.71199461  0.00033063     0.84390
C1914       C  0.55797136  0.71203872  0.00033422     0.90670
C1915       C  0.65274385  0.96292483  0.19607039    -0.06270
C1916       C  0.66059559  0.93647213  0.18304997    -0.17400
C1917       C  0.68211283  0.93543919  0.16148687     0.10930
C1918       C  0.69602511  0.96144940  0.15274496    -0.06190
C1919       C  0.68698137  0.98805740  0.16463401    -0.17430
C1920       C  0.66548896  0.98908040  0.18615286     0.10960
S1921       S  0.69301658  0.90006732  0.14840310    -0.32390
S1922       S  0.65717578  0.52405120  0.20197089    -0.32400
H1923       H  0.62860945  0.51715783  0.21056536     0.28970
H1924       H  0.70184404  0.90928186  0.12062807     0.28960
H1925       H  0.65122384  0.91632224  0.19103167     0.19560
H1926       H  0.69793877  0.50799211  0.15829086     0.19560
C1927       C  0.80352250  0.96337884  0.15347087    -0.06270
C1928       C  0.81819706  0.93727051  0.15947928    -0.17400
C1929       C  0.83989765  0.93599418  0.18095396     0.10930
C1930       C  0.84712749  0.96142834  0.19668900    -0.06190
C1931       C  0.83354380  0.98783449  0.18949612    -0.17430
C1932       C  0.81189942  0.98909590  0.16806889     0.10960
S1933       S  0.85508117  0.90075656  0.18938660    -0.32390
S1934       S  0.79412108  0.52362760  0.16201612    -0.32400
H1935       H  0.78584694  0.51818230  0.13303139     0.28970
H1936       H  0.88235285  0.91082399  0.19887473     0.28960
H1937       H  0.81144438  0.91740879  0.14865331     0.19560
H1938       H  0.83875435  0.50731225  0.20177853     0.19560
C1939       C  0.84747702  0.96103555  0.30415686    -0.06270
C1940       C  0.83514627  0.98771194  0.31241233    -0.17400
C1941       C  0.81365262  0.98906245  0.33392770     0.10930
C1942       C  0.80417126  0.96316009  0.34752339    -0.06190
C1943       C  0.81763195  0.93668730  0.34044540    -0.17430
C1944       C  0.83917381  0.93533338  0.31889102     0.10960
S1945       S  0.79744930  0.52408626  0.34131935    -0.32390
S1946       S  0.85288755  0.89986778  0.30910708    -0.32400
H1947       H  0.88032108  0.90927795  0.29943085     0.28970
H1948       H  0.78848236  0.51775473  0.36989348     0.28960
H1949       H  0.84117807  0.50741366  0.30087471     0.19560
H1950       H  0.81002513  0.91671183  0.35047292     0.19560
C1951       C  0.69669229  0.96582994  0.34726853    -0.06270
C1952       C  0.67904197  0.94106322  0.34410657    -0.17400
C1953       C  0.65781034  0.93965284  0.32212468     0.10930
C1954       C  0.65383775  0.96378363  0.30338537    -0.06190
C1955       C  0.66989989  0.98929614  0.30820976    -0.17430
C1956       C  0.69109792  0.99063579  0.32997735     0.10960
S1957       S  0.63819876  0.90585353  0.31786913    -0.32390
S1958       S  0.71155699  0.52401806  0.33344596    -0.32400
H1959       H  0.71906878  0.52025961  0.36292525     0.28970
H1960       H  0.63550828  0.90698957  0.28739589     0.28960
H1961       H  0.68334956  0.92195587  0.35730270     0.19560
H1962       H  0.66677196  0.50791267  0.29400670     0.19560
C1963       C  0.99910056  0.65872517  0.15368067    -0.06270
C1964       C  0.97529229  0.65689379  0.17273417    -0.17400
C1965       C  0.97392206  0.63550863  0.19423509     0.10930
C1966       C  0.99700282  0.61534939  0.19712381    -0.06190
C1967       C  0.51946039  0.61531357  0.17635809    -0.17430
C1968       C  0.52090226  0.63697269  0.15477276     0.10960
S1969       S  0.94288341  0.63614620  0.21836676    -0.32390
S1970       S  0.55209689  0.63686025  0.13093545    -0.32400
H1971       H  0.55526131  0.66726186  0.12939671     0.28970
H1972       H  0.94370765  0.60634377  0.22541191     0.28960
H1973       H  0.95820194  0.67317452  0.17168162     0.19560
H1974       H  0.53713828  0.59978665  0.17837393     0.19560
C1975       C  0.99872361  0.76576326  0.15348837    -0.06270
C1976       C  0.97543006  0.76706855  0.17320027    -0.17400
C1977       C  0.97418776  0.78839134  0.19470737     0.10930
C1978       C  0.99690997  0.80904127  0.19696270    -0.06190
C1979       C  0.51866121  0.80970372  0.17547188    -0.17430
C1980       C  0.51994388  0.78812114  0.15382646     0.10960
S1981       S  0.94381167  0.78701531  0.21965006    -0.32390
S1982       S  0.55025176  0.78915820  0.12890112    -0.32400
H1983       H  0.55449727  0.75887498  0.12769333     0.28970
H1984       H  0.94416229  0.81681588  0.22669082     0.28960
H1985       H  0.95867836  0.75040795  0.17266068     0.19560
H1986       H  0.53599473  0.82567909  0.17692647     0.19560
C1987       C  0.99952443  0.80891805  0.30393918    -0.06270
C1988       C  0.97493334  0.79091308  0.30594904    -0.17400
C1989       C  0.97285199  0.76944782  0.32728180     0.10930
C1990       C  0.49610450  0.76531200  0.34703964    -0.06190
C1991       C  0.51941983  0.78517062  0.34699321    -0.17430
C1992       C  0.52145239  0.80692681  0.32553559     0.10960
S1993       S  0.94039992  0.74730313  0.32732947    -0.32390
S1994       S  0.55324948  0.83001698  0.32593276    -0.32400
H1995       H  0.55568469  0.83318004  0.29559396     0.28970
H1996       H  0.94163849  0.73999610  0.35706639     0.28960
H1997       H  0.95765778  0.79283726  0.28990639     0.19560
H1998       H  0.53715543  0.78237968  0.36237092     0.19560
C1999       C  0.49802004  0.65759870  0.34790514    -0.06270
C2000       C  0.52324686  0.64059217  0.34474397    -0.17400
C2001       C  0.52502998  0.61917360  0.32301115     0.10930
C2002       C  0.50093872  0.61462149  0.30431977    -0.06190
C2003       C  0.97497105  0.62987581  0.30931277    -0.17430
C2004       C  0.97314853  0.65098527  0.33103805     0.10960
S2005       S  0.55906498  0.59985165  0.31927642    -0.32390
S2006       S  0.93886348  0.66970029  0.33520701    -0.32400
H2007       H  0.94306778  0.67773119  0.36446588     0.28970
H2008       H  0.55747773  0.59508508  0.28910350     0.28960
H2009       H  0.54232583  0.64545017  0.35782489     0.19560
H2010       H  0.95629353  0.62614041  0.29529143     0.19560
C2011       C  0.65325539  0.65842578  0.99887667    -0.06270
C2012       C  0.66045105  0.64467455  0.02519600    -0.17400
C2013       C  0.68181304  0.62291257  0.02622503     0.10930
C2014       C  0.69625578  0.61470408  0.00034135    -0.06190
C2015       C  0.68788112  0.62737431  0.47381727    -0.17430
C2016       C  0.66653204  0.64907440  0.47279686     0.10960
S2017       S  0.69184881  0.60889583  0.06154840    -0.32390
S2018       S  0.65900875  0.66574202  0.43798708    -0.32400
H2019       H  0.63030876  0.67426591  0.44439693     0.28970
H2020       H  0.70035761  0.58117375  0.05195396     0.28960
H2021       H  0.65064067  0.65217906  0.04530278     0.19560
H2022       H  0.69923238  0.62145604  0.45398956     0.19560
C2023       C  0.80375286  0.61485231  0.99902694    -0.06270
C2024       C  0.81765860  0.62184734  0.02532329    -0.17400
C2025       C  0.83935830  0.64328476  0.02639639     0.10930
C2026       C  0.84736452  0.65800199  0.00057542    -0.06190
C2027       C  0.83451274  0.64986540  0.47406940    -0.17430
C2028       C  0.81286828  0.62846079  0.47300765     0.10960
S2029       S  0.85352333  0.65305264  0.06172605    -0.32390
S2030       S  0.79595138  0.62128546  0.43824072    -0.32400
H2031       H  0.78755847  0.59251231  0.44445009     0.28970
H2032       H  0.88118764  0.66176719  0.05209060     0.28960
H2033       H  0.81031029  0.61182191  0.04539676     0.19560
H2034       H  0.84025409  0.66143220  0.45429612     0.19560
C2035       C  0.84715272  0.76538814  0.99868315    -0.06270
C2036       C  0.84115988  0.78019678  0.02468644    -0.17400
C2037       C  0.81973193  0.80190489  0.02575023     0.10930
C2038       C  0.80404860  0.80901675  0.00019063    -0.06190
C2039       C  0.81123939  0.79529587  0.47389070    -0.17430
C2040       C  0.83259535  0.77362857  0.47285192     0.10960
S2041       S  0.81116004  0.81708900  0.06092475    -0.32390
S2042       S  0.83855297  0.75561280  0.43845946    -0.32400
H2043       H  0.86753106  0.74733532  0.44401350     0.28970
H2044       H  0.80253390  0.84459114  0.05079541     0.28960
H2045       H  0.85192787  0.77352345  0.04463758     0.19560
H2046       H  0.79897264  0.80039083  0.45433410     0.19560
C2047       C  0.69654728  0.80913272  0.99942555    -0.06270
C2048       C  0.68342800  0.80122523  0.02582813    -0.17400
C2049       C  0.66180271  0.77973785  0.02675408     0.10930
C2050       C  0.65314103  0.76585863  0.00069371    -0.06190
C2051       C  0.66514485  0.77493378  0.47413129    -0.17430
C2052       C  0.68668160  0.79644685  0.47320650     0.10960
S2053       S  0.64849433  0.76886089  0.06207013    -0.32390
S2054       S  0.70254740  0.80488600  0.43827245    -0.32400
H2055       H  0.71097932  0.83347564  0.44518605     0.28970
H2056       H  0.62063407  0.76033855  0.05273095     0.28960
H2057       H  0.69132875  0.81058725  0.04602174     0.19560
H2058       H  0.65883821  0.76402571  0.45415480     0.19560
C2059       C  0.75026459  0.87203111  0.00067172     0.02980
C2060       C  0.72376516  0.85648342  0.00082444    -0.13170
C2061       C  0.72384171  0.82598016  0.00047311     0.00480
C2062       C  0.75028802  0.81090404  0.50081835    -0.11690
C2063       C  0.77675860  0.82596672  0.50105989     0.02980
C2064       C  0.77677169  0.85648941  0.50047559    -0.11110
H2065       H  0.70311899  0.86791813  0.00072211     0.08570
H2066       H  0.75026734  0.78729189  0.50063730     0.06100
H2067       H  0.79740307  0.86795527  0.50000555     0.05950
C2068       C  0.91033791  0.71191430  0.50053082     0.02980
C2069       C  0.89467915  0.73834716  0.50046707    -0.13170
C2070       C  0.86412779  0.73818021  0.50016624     0.00480
C2071       C  0.84912463  0.71170765  0.50075098    -0.11690
C2072       C  0.86427389  0.68531767  0.50116413     0.02980
C2073       C  0.89483519  0.68538068  0.50060966    -0.11110
H2074       H  0.90606811  0.75900309  0.50012527     0.08570
H2075       H  0.82548164  0.71164463  0.50057865     0.06100
H2076       H  0.90635350  0.66479976  0.50038230     0.05950
C2077       C  0.75013887  0.55176563  0.50034637     0.02980
C2078       C  0.72360212  0.56727616  0.00030341    -0.13170
C2079       C  0.72357716  0.59780147  0.50086767     0.00480
C2080       C  0.75000566  0.61292157  0.50058532    -0.11690
C2081       C  0.77648921  0.59790869  0.50016631     0.02980
C2082       C  0.77661765  0.56738293  0.50044144    -0.11110
H2083       H  0.70298018  0.55578707  0.00001525     0.08570
H2084       H  0.74996315  0.63653515  0.50045627     0.06100
H2085       H  0.79727973  0.55598331  0.50024736     0.05950
C2086       C  0.59024533  0.71204933  0.50044362     0.02980
C2087       C  0.60576458  0.73854286  0.50047002    -0.13170
C2088       C  0.63630348  0.73854112  0.50092690     0.00480
C2089       C  0.65143661  0.71213915  0.50046754    -0.11690
C2090       C  0.63637970  0.68569406  0.50000942     0.02980
C2091       C  0.60583959  0.68558776  0.50038860    -0.11110
H2092       H  0.59428037  0.75914637  0.50035898     0.08570
H2093       H  0.67507714  0.71217185  0.50030176     0.06100
H2094       H  0.59440983  0.66495163  0.50017285     0.05950
C2095       C  0.50064918  0.71185739  0.91039098     0.02980
C2096       C  0.50083704  0.68525371  0.89504765    -0.13170
C2097       C  0.49967449  0.68505497  0.86456709     0.00480
C2098       C  0.49896662  0.71143370  0.84933430    -0.11690
C2099       C  0.49855515  0.73807149  0.86415010     0.02980
C2100       C  0.49978399  0.73827324  0.89467119    -0.11110
H2101       H  0.50118315  0.66472124  0.90665816     0.08570
H2102       H  0.49817102  0.71120240  0.82572232     0.06100
H2103       H  0.49933238  0.75892419  0.90603013     0.05950
C2104       C  0.00120966  0.87227463  0.75039400     0.02980
C2105       C  0.00188462  0.85676528  0.77696051    -0.13170
C2106       C  0.00258749  0.82625676  0.77695836     0.00480
C2107       C  0.00286525  0.81132517  0.75044119    -0.11690
C2108       C  0.00074335  0.82621973  0.72395714     0.02980
C2109       C  0.00058722  0.85672878  0.72387859    -0.11110
H2110       H  0.00126402  0.86822206  0.79756236     0.08570
H2111       H  0.00319601  0.78770980  0.75047241     0.06100
H2112       H  0.99910793  0.86817098  0.70329697     0.05950
C2113       C  0.50121813  0.71216341  0.59009956     0.02980
C2114       C  0.50106642  0.73872461  0.60557781    -0.13170
C2115       C  0.50161439  0.73875766  0.63611614     0.00480
C2116       C  0.50251728  0.71224136  0.65108117    -0.11690
C2117       C  0.50182681  0.68570284  0.63622565     0.02980
C2118       C  0.50134680  0.68564263  0.60569315    -0.11110
H2119       H  0.49999553  0.75928245  0.59405541     0.08570
H2120       H  0.50279421  0.71224754  0.67470455     0.06100
H2121       H  0.50053014  0.66503444  0.59426934     0.05950
C2122       C  0.00179847  0.55185466  0.75035413     0.02980
C2123       C  0.00271784  0.56720914  0.77695728    -0.13170
C2124       C  0.00285430  0.59770260  0.77708676     0.00480
C2125       C  0.00218691  0.61288252  0.75071491    -0.11690
C2126       C  0.00044758  0.59809861  0.72414554     0.02980
C2127       C  0.00080324  0.56756982  0.72392201    -0.11110
H2128       H  0.00281506  0.55563794  0.79752317     0.08570
H2129       H  0.00202619  0.63649807  0.75092686     0.06100
H2130       H  0.99946826  0.55623023  0.70329049     0.05950
C2131       C  0.75031719  0.96138254  0.91036846     0.02980
C2132       C  0.72381885  0.96219058  0.89474804    -0.13170
C2133       C  0.72392465  0.96349143  0.86424789     0.00480
C2134       C  0.75043770  0.96337337  0.84926890    -0.11690
C2135       C  0.77685619  0.96235464  0.86437551     0.02980
C2136       C  0.77685804  0.96116622  0.89488127    -0.11110
H2137       H  0.70317409  0.96252216  0.90615353     0.08570
H2138       H  0.75051804  0.96439934  0.82566459     0.06100
H2139       H  0.79748055  0.96062724  0.90638407     0.05950
C2140       C  0.91038039  0.96203397  0.75034465     0.02980
C2141       C  0.89488008  0.96165858  0.77684876    -0.13170
C2142       C  0.86435198  0.96024159  0.77685040     0.00480
C2143       C  0.84921199  0.95954991  0.75041625    -0.11690
C2144       C  0.86419541  0.96036254  0.72393545     0.02980
C2145       C  0.89472662  0.96185198  0.72387640    -0.11110
H2146       H  0.90638033  0.96230081  0.79745983     0.08570
H2147       H  0.82558042  0.95886878  0.75045391     0.06100
H2148       H  0.90611355  0.96270741  0.70324328     0.05950
C2149       C  0.75009154  0.96175118  0.59014273     0.02980
C2150       C  0.77652953  0.96181411  0.60587125    -0.13170
C2151       C  0.77631048  0.96211919  0.63640589     0.00480
C2152       C  0.74977779  0.96157987  0.65130216    -0.11690
C2153       C  0.72341212  0.96114311  0.63604090     0.02980
C2154       C  0.72351834  0.96165546  0.60552454    -0.11110
H2155       H  0.79722205  0.96210487  0.59454988     0.08570
H2156       H  0.74964766  0.96171378  0.67492377     0.06100
H2157       H  0.70292685  0.96177957  0.59394620     0.05950
C2158       C  0.59024565  0.96114868  0.75017129     0.02980
C2159       C  0.60600127  0.96148183  0.77659000    -0.13170
C2160       C  0.63655211  0.96211197  0.77632561     0.00480
C2161       C  0.65136998  0.96244824  0.74974339    -0.11690
C2162       C  0.63608512  0.96198703  0.72343857     0.02980
C2163       C  0.60558560  0.96107982  0.72357818    -0.11110
H2164       H  0.59469502  0.96166998  0.79728301     0.08570
H2165       H  0.67499956  0.96321198  0.74951900     0.06100
H2166       H  0.59398266  0.96088662  0.70301580     0.05950
O2167       O  0.54420398  0.96165157  0.77445052    -0.73090
O2168       O  0.95666534  0.96230996  0.77443848    -0.74070
O2169       O  0.00033138  0.91835993  0.77448934    -0.62690
O2170       O  0.00090236  0.50569845  0.77439514    -0.71100
O2171       O  0.00071824  0.50579343  0.72610256    -0.70650
O2172       O  0.00016224  0.91836882  0.72619375    -0.61910
O2173       O  0.95652911  0.96234883  0.72615145    -0.74410
O2174       O  0.54402366  0.96169320  0.72615362    -0.73190
Cu2175     Cu  0.00048293  0.96202299  0.77611047     1.04560
Cu2176     Cu  0.00031685  0.96206610  0.72447544     1.04330
C2177       C  0.55798581  0.96146848  0.75027568     0.93110
C2178       C  0.94269760  0.96234336  0.75030964     0.92250
C2179       C  0.00046575  0.90450345  0.75035421     0.84390
C2180       C  0.00110463  0.51961193  0.75026453     0.90670
O2181       O  0.72604277  0.96190535  0.54391464    -0.73090
O2182       O  0.72610572  0.96164837  0.95646018    -0.74070
O2183       O  0.72608624  0.91813428  0.50035961    -0.62690
O2184       O  0.72603993  0.50557524  0.50008960    -0.71100
O2185       O  0.77435486  0.50562305  0.50021203    -0.70650
O2186       O  0.77440699  0.91815911  0.50051799    -0.61910
O2187       O  0.77442307  0.96165031  0.95659479    -0.74410
O2188       O  0.77436212  0.96196138  0.54408179    -0.73190
Cu2189     Cu  0.72439741  0.96182845  0.50019401     1.04560
Cu2190     Cu  0.77605881  0.96186374  0.50034632     1.04330
C2191       C  0.75017837  0.96189649  0.55787505     0.93110
C2192       C  0.75028065  0.96150458  0.94264660     0.92250
C2193       C  0.75025283  0.90427877  0.50050356     0.84390
C2194       C  0.75018330  0.51948319  0.50018704     0.90670
O2195       O  0.00046610  0.73623400  0.54391176    -0.73090
O2196       O  0.00036571  0.73615051  0.95645065    -0.74070
O2197       O  0.95651776  0.73615304  0.50020735    -0.62690
O2198       O  0.54407907  0.73617341  0.50022665    -0.71100
O2199       O  0.54410564  0.68789747  0.50036270    -0.70650
O2200       O  0.95659331  0.68788493  0.50033053    -0.61910
O2201       O  0.00043277  0.68787802  0.95661623    -0.74410
O2202       O  0.00050297  0.68795928  0.54402995    -0.73190
Cu2203     Cu  0.00033403  0.73785265  0.50018815     1.04560
Cu2204     Cu  0.00038299  0.68624019  0.50032795     1.04330
C2205       C  0.00065805  0.71211765  0.55784320     0.93110
C2206       C  0.00052566  0.71197990  0.94265761     0.92250
C2207       C  0.94265600  0.71199460  0.50033062     0.84390
C2208       C  0.55797136  0.71203872  0.50033422     0.90670
C2209       C  0.65274386  0.96292482  0.69607039    -0.06270
C2210       C  0.66059559  0.93647213  0.68304997    -0.17400
C2211       C  0.68211284  0.93543919  0.66148688     0.10930
C2212       C  0.69602511  0.96144939  0.65274497    -0.06190
C2213       C  0.68698137  0.98805740  0.66463401    -0.17430
C2214       C  0.66548896  0.98908040  0.68615286     0.10960
S2215       S  0.69301659  0.90006731  0.64840311    -0.32390
S2216       S  0.65717578  0.52405120  0.70197089    -0.32400
H2217       H  0.62860944  0.51715782  0.71056536     0.28970
H2218       H  0.70184405  0.90928186  0.62062808     0.28960
H2219       H  0.65122385  0.91632223  0.69103167     0.19560
H2220       H  0.69793877  0.50799210  0.65829086     0.19560
C2221       C  0.80352250  0.96337884  0.65347087    -0.06270
C2222       C  0.81819707  0.93727051  0.65947928    -0.17400
C2223       C  0.83989766  0.93599419  0.68095396     0.10930
C2224       C  0.84712750  0.96142834  0.69668900    -0.06190
C2225       C  0.83354380  0.98783449  0.68949612    -0.17430
C2226       C  0.81189943  0.98909590  0.66806889     0.10960
S2227       S  0.85508118  0.90075657  0.68938660    -0.32390
S2228       S  0.79412108  0.52362759  0.66201613    -0.32400
H2229       H  0.78584694  0.51818229  0.63303140     0.28970
H2230       H  0.88235287  0.91082401  0.69887471     0.28960
H2231       H  0.81144439  0.91740879  0.64865332     0.19560
H2232       H  0.83875435  0.50731224  0.70177853     0.19560
C2233       C  0.84747703  0.96103554  0.80415686    -0.06270
C2234       C  0.83514630  0.98771193  0.81241235    -0.17400
C2235       C  0.81365265  0.98906244  0.83392772     0.10930
C2236       C  0.80417127  0.96316007  0.84752339    -0.06190
C2237       C  0.81763194  0.93668728  0.84044537    -0.17430
C2238       C  0.83917379  0.93533336  0.81889099     0.10960
S2239       S  0.79744934  0.52408625  0.84131940    -0.32390
S2240       S  0.85288751  0.89986776  0.80910702    -0.32400
H2241       H  0.88032105  0.90927792  0.79943080     0.28970
H2242       H  0.78848240  0.51775471  0.86989352     0.28960
H2243       H  0.84117811  0.50741365  0.80087475     0.19560
H2244       H  0.81002510  0.91671180  0.85047287     0.19560
C2245       C  0.69669229  0.96582993  0.84726853    -0.06270
C2246       C  0.67904198  0.94106321  0.84410657    -0.17400
C2247       C  0.65781034  0.93965284  0.82212467     0.10930
C2248       C  0.65383776  0.96378362  0.80338537    -0.06190
C2249       C  0.66989989  0.98929614  0.80820976    -0.17430
C2250       C  0.69109793  0.99063578  0.82997735     0.10960
S2251       S  0.63819876  0.90585353  0.81786913    -0.32390
S2252       S  0.71155698  0.52401806  0.83344596    -0.32400
H2253       H  0.71906877  0.52025961  0.86292525     0.28970
H2254       H  0.63550829  0.90698957  0.78739589     0.28960
H2255       H  0.68334957  0.92195586  0.85730269     0.19560
H2256       H  0.66677195  0.50791267  0.79400671     0.19560
C2257       C  0.99910054  0.65872516  0.65368067    -0.06270
C2258       C  0.97529227  0.65689378  0.67273417    -0.17400
C2259       C  0.97392204  0.63550863  0.69423509     0.10930
C2260       C  0.99700280  0.61534939  0.69712381    -0.06190
C2261       C  0.51946038  0.61531356  0.67635808    -0.17430
C2262       C  0.52090226  0.63697268  0.65477276     0.10960
S2263       S  0.94288339  0.63614620  0.71836676    -0.32390
S2264       S  0.55209688  0.63686024  0.63093544    -0.32400
H2265       H  0.55526131  0.66726185  0.62939670     0.28970
H2266       H  0.94370763  0.60634377  0.72541191     0.28960
H2267       H  0.95820193  0.67317451  0.67168162     0.19560
H2268       H  0.53713828  0.59978664  0.67837393     0.19560
C2269       C  0.99872360  0.76576325  0.65348837    -0.06270
C2270       C  0.97543006  0.76706855  0.67320027    -0.17400
C2271       C  0.97418776  0.78839134  0.69470738     0.10930
C2272       C  0.99690997  0.80904127  0.69696270    -0.06190
C2273       C  0.51866121  0.80970372  0.67547188    -0.17430
C2274       C  0.51994388  0.78812113  0.65382647     0.10960
S2275       S  0.94381166  0.78701532  0.71965006    -0.32390
S2276       S  0.55025176  0.78915820  0.62890113    -0.32400
H2277       H  0.55449727  0.75887497  0.62769334     0.28970
H2278       H  0.94416229  0.81681588  0.72669082     0.28960
H2279       H  0.95867835  0.75040796  0.67266069     0.19560
H2280       H  0.53599472  0.82567908  0.67692648     0.19560
C2281       C  0.99952443  0.80891805  0.80393918    -0.06270
C2282       C  0.97493334  0.79091309  0.80594905    -0.17400
C2283       C  0.97285199  0.76944783  0.82728181     0.10930
C2284       C  0.49610450  0.76531200  0.84703964    -0.06190
C2285       C  0.51941982  0.78517062  0.84699321    -0.17430
C2286       C  0.52145238  0.80692680  0.82553559     0.10960
S2287       S  0.94039991  0.74730315  0.82732949    -0.32390
S2288       S  0.55324948  0.83001697  0.82593275    -0.32400
H2289       H  0.55568469  0.83318002  0.79559395     0.28970
H2290       H  0.94163848  0.73999612  0.85706641     0.28960
H2291       H  0.95765778  0.79283728  0.78990641     0.19560
H2292       H  0.53715543  0.78237967  0.86237091     0.19560
C2293       C  0.49802001  0.65759870  0.84790514    -0.06270
C2294       C  0.52324684  0.64059216  0.84474397    -0.17400
C2295       C  0.52502995  0.61917359  0.82301116     0.10930
C2296       C  0.50093870  0.61462149  0.80431976    -0.06190
C2297       C  0.97497104  0.62987582  0.80931276    -0.17430
C2298       C  0.97314852  0.65098528  0.83103804     0.10960
S2299       S  0.55906495  0.59985163  0.81927645    -0.32390
S2300       S  0.93886348  0.66970032  0.83520699    -0.32400
H2301       H  0.94306777  0.67773121  0.86446586     0.28970
H2302       H  0.55747772  0.59508508  0.78910352     0.28960
H2303       H  0.54232580  0.64545015  0.85782490     0.19560
H2304       H  0.95629352  0.62614043  0.79529141     0.19560
C2305       C  0.65325539  0.65842578  0.49887667    -0.06270
C2306       C  0.66045102  0.64467453  0.52519599    -0.17400
C2307       C  0.68181301  0.62291255  0.52622503     0.10930
C2308       C  0.69625577  0.61470407  0.50034135    -0.06190
C2309       C  0.68788111  0.62737429  0.97381727    -0.17430
C2310       C  0.66653203  0.64907439  0.97279686     0.10960
S2311       S  0.69184876  0.60889578  0.56154839    -0.32390
S2312       S  0.65900872  0.66574199  0.93798708    -0.32400
H2313       H  0.63030872  0.67426588  0.94439694     0.28970
H2314       H  0.70035755  0.58117371  0.55195395     0.28960
H2315       H  0.65064063  0.65217903  0.54530277     0.19560
H2316       H  0.69923236  0.62145602  0.95398956     0.19560
C2317       C  0.80375285  0.61485231  0.49902694    -0.06270
C2318       C  0.81765859  0.62184734  0.52532329    -0.17400
C2319       C  0.83935830  0.64328475  0.52639638     0.10930
C2320       C  0.84736451  0.65800199  0.50057542    -0.06190
C2321       C  0.83451275  0.64986540  0.97406940    -0.17430
C2322       C  0.81286829  0.62846079  0.97300765     0.10960
S2323       S  0.85352333  0.65305264  0.56172604    -0.32390
S2324       S  0.79595140  0.62128546  0.93824072    -0.32400
H2325       H  0.78755849  0.59251231  0.94445009     0.28970
H2326       H  0.88118764  0.66176718  0.55209059     0.28960
H2327       H  0.81031028  0.61182191  0.54539677     0.19560
H2328       H  0.84025410  0.66143220  0.95429613     0.19560
C2329       C  0.84715271  0.76538814  0.49868315    -0.06270
C2330       C  0.84115987  0.78019678  0.52468644    -0.17400
C2331       C  0.81973192  0.80190488  0.52575022     0.10930
C2332       C  0.80404860  0.80901675  0.50019062    -0.06190
C2333       C  0.81123939  0.79529586  0.97389071    -0.17430
C2334       C  0.83259536  0.77362857  0.97285192     0.10960
S2335       S  0.81116003  0.81708899  0.56092474    -0.32390
S2336       S  0.83855297  0.75561279  0.93845947    -0.32400
H2337       H  0.86753106  0.74733532  0.94401351     0.28970
H2338       H  0.80253390  0.84459113  0.55079541     0.28960
H2339       H  0.85192786  0.77352344  0.54463757     0.19560
H2340       H  0.79897264  0.80039082  0.95433410     0.19560
C2341       C  0.69654728  0.80913272  0.49942556    -0.06270
C2342       C  0.68342801  0.80122522  0.52582814    -0.17400
C2343       C  0.66180272  0.77973784  0.52675409     0.10930
C2344       C  0.65314103  0.76585862  0.50069372    -0.06190
C2345       C  0.66514486  0.77493378  0.97413128    -0.17430
C2346       C  0.68668161  0.79644685  0.97320650     0.10960
S2347       S  0.64849435  0.76886088  0.56207014    -0.32390
S2348       S  0.70254742  0.80488599  0.93827245    -0.32400
H2349       H  0.71097934  0.83347564  0.94518604     0.28970
H2350       H  0.62063409  0.76033852  0.55273096     0.28960
H2351       H  0.69132877  0.81058724  0.54602174     0.19560
H2352       H  0.65883822  0.76402571  0.95415479     0.19560
loop_ 
_geom_bond_atom_site_label_1 
_geom_bond_atom_site_label_2 
_geom_bond_distance 
_geom_bond_site_symmetry_2 
_ccdc_geom_bond_type 
C1            C2   1.410       .  A
C1          C300   1.410       .  A
C1          C429   1.481       .  S
C2            C3   1.401       .  A
C2            H7   1.083       .  S
C3          C298   1.397       .  A
C3          C577   1.473       .  S
C4            C5   1.398       .  A
C4          C297   1.397       .  A
C4            H8   1.084       .  S
C5            C6   1.402       .  A
C5          C274   1.475       .  S
C6          C295   1.410       .  A
C6            H9   1.083       .  S
C10          C11   1.410       .  A
C10          C15   1.411       .  A
C10         C149   1.483       .  S
C11          C12   1.402       .  A
C11          H16   1.083       .  S
C12          C13   1.397       .  A
C12         C271   1.474   1_554  S
C13          C14   1.397       .  A
C13          H17   1.085       .  S
C14          C15   1.402       .  A
C14         C262   1.475       .  S
C15          H18   1.083       .  S
C19          C24   1.411       .  A
C19         C314   1.410       .  A
C19         C136   1.482       .  S
C20         C313   1.410       .  A
C20         C315   1.402       .  A
C20          H25   1.083       .  S
C21          C22   1.397       .  A
C21         C314   1.402       .  A
C21         C250   1.474       .  S
C22          C23   1.397       .  A
C22          H26   1.084       .  S
C23          C24   1.402       .  A
C23         C259   1.474   1_554  S
C24          H27   1.083       .  S
C28          C29   1.410       .  A
C28          C33   1.410       .  A
C28         C150   1.481       .  S
C29          C30   1.401       .  A
C29          H34   1.083       .  S
C30          C31   1.397       .  A
C30         C286   1.473       .  S
C31          C32   1.397       .  A
C31          H35   1.085       .  S
C32          C33   1.401       .  A
C32         C247   1.473   1_554  S
C33          H36   1.083       .  S
C37          C38   1.411       .  A
C37          C42   1.411   1_455  A
C37        C1324   1.481       .  S
C38          C39   1.400   1_455  A
C38          H43   1.083       .  S
C39          C40   1.398       .  A
C39         C235   1.477       .  S
C40          C41   1.400       .  A
C40          H44   1.084       .  S
C41          C42   1.402       .  A
C41         C226   1.481       .  S
C42          H45   1.083       .  S
C46          C47   1.412       .  A
C46          C51   1.412       .  A
C46         C121   1.480       .  S
C47          C48   1.401       .  A
C47          H52   1.083       .  S
C48          C49   1.398       .  A
C48         C223   1.479       .  S
C49          C50   1.398       .  A
C49          H53   1.084       .  S
C50          C51   1.401       .  A
C50         C214   1.480       .  S
C51          H54   1.083       .  S
C55          C56   1.412       .  A
C55          C60   1.412       .  A
C55        C1323   1.481       .  S
C56          C57   1.402       .  A
C56          H61   1.083   1_455  S
C57          C58   1.398       .  A
C57        C1387   1.481   1_455  S
C58          C59   1.397       .  A
C58          H62   1.084       .  S
C59          C60   1.402       .  A
C59        C1375   1.480   1_455  S
C60          H63   1.083       .  S
C64          C65   1.411       .  A
C64          C69   1.412       .  A
C64         C122   1.481       .  S
C65          C66   1.400       .  A
C65          H70   1.083       .  S
C66          C67   1.397       .  A
C66        C1414   1.475       .  S
C67          C68   1.398       .  A
C67          H71   1.084       .  S
C68          C69   1.402       .  A
C68         C202   1.479       .  S
C69          H72   1.083       .  S
C73          C74   1.411       .  A
C73          C78   1.411       .  A
C73         C134   1.482       .  S
C74          C75   1.401       .  A
C74          H79   1.083       .  S
C75          C76   1.398       .  A
C75         C187   1.475       .  S
C76          C77   1.396       .  A
C76          H80   1.084       .  S
C77          C78   1.401       .  A
C77         C178   1.474       .  S
C78          H81   1.083       .  S
C82          C83   1.410       .  A
C82          C87   1.410       .  A
C82         C120   1.483       .  S
C83          C84   1.402       .  A
C83          H88   1.083       .  S
C84          C85   1.397       .  A
C84         C175   1.475       .  S
C85          C86   1.398       .  A
C85          H89   1.085       .  S
C86          C87   1.402       .  A
C86         C166   1.475       .  S
C87          H90   1.083       .  S
C91          C92   1.410       .  A
C91          C96   1.410       .  A
C91         C133   1.481       .  S
C92          C93   1.402       .  A
C92          H97   1.083       .  S
C93          C94   1.397       .  A
C93         C163   1.474       .  S
C94          C95   1.397       .  A
C94          H98   1.084       .  S
C95          C96   1.401       .  A
C95         C154   1.473       .  S
C96          H99   1.083       .  S
C100        C101   1.411       .  A
C100        C105   1.410       .  A
C100        C119   1.480       .  S
C101        C102   1.402       .  A
C101        H106   1.083       .  S
C102        C103   1.398       .  A
C102        C190   1.475       .  S
C103        C104   1.395       .  A
C103        H107   1.085       .  S
C104        C105   1.400       .  A
C104        C151   1.472       .  S
C105        H108   1.083       .  S
O109        C119   1.278       .  A
O109      Cu1293   2.007       .  S
O110        C120   1.279       .  A
O110       Cu117   2.011       .  S
O111        C121   1.278       .  A
O111       Cu117   2.006       .  S
O112        C122   1.278       .  A
O112       Cu705   2.007   1_545  S
O113        C122   1.278       .  A
O113       Cu706   2.009   1_545  S
O114        C121   1.278       .  A
O114       Cu118   2.008       .  S
O115        C120   1.278       .  A
O115       Cu118   2.010       .  S
O116        C119   1.278       .  A
O116      Cu1294   2.006       .  S
Cu117      O1285   2.007       .  S
Cu117       O700   2.007       .  S
Cu117      Cu118   2.370       .  S
Cu118       O701   2.009       .  S
Cu118      O1292   2.006       .  S
O123        C133   1.278       .  A
O123       Cu131   2.008       .  S
O124        C134   1.278       .  A
O124       Cu425   2.009       .  S
O125        C135   1.278       .  A
O125       Cu131   2.008       .  S
O126        C136   1.278       .  A
O126       Cu719   2.010   1_545  S
O127        C136   1.278       .  A
O127       Cu720   2.011   1_545  S
O128        C135   1.278       .  A
O128       Cu132   2.008       .  S
O129        C134   1.278       .  A
O129       Cu426   2.009       .  S
O130        C133   1.278       .  A
O130       Cu132   2.009       .  S
Cu131       O418   2.009   1_554  S
Cu131       O714   2.010       .  S
Cu131      Cu132   2.370       .  S
Cu132       O715   2.011       .  S
Cu132       O423   2.009   1_554  S
C135        C295   1.481       .  S
O137        C147   1.278       .  A
O137       Cu145   2.008       .  S
O138        C148   1.278       .  A
O138       Cu439   2.009       .  S
O139        C149   1.279       .  A
O139       Cu145   2.012       .  S
O140        C150   1.278       .  A
O140      Cu1321   2.008       .  S
O141        C150   1.278       .  A
O141      Cu1322   2.007       .  S
O142        C149   1.278       .  A
O142       Cu146   2.010       .  S
O143        C148   1.278       .  A
O143       Cu440   2.008       .  S
O144        C147   1.278       .  A
O144       Cu146   2.008       .  S
Cu145       O432   2.009   1_554  S
Cu145      O1316   2.008       .  S
Cu145      Cu146   2.370       .  S
Cu146      O1317   2.007       .  S
Cu146       O437   2.008   1_554  S
C147       C1231   1.481       .  S
C148       C1213   1.481       .  S
C151        C152   1.401       .  A
C151        C156   1.411       .  A
C152        C153   1.400       .  A
C152        H161   1.084       .  S
C153        C154   1.412       .  A
C153        S157   1.803       .  S
C154        C155   1.402       .  A
C155        C156   1.398       .  A
C155        H750   1.084       .  S
C156        S746   1.804       .  S
S157        H160   1.403       .  S
S158        C744   1.804   1_545  S
S158        H159   1.405       .  S
H162        C743   1.084   1_545  S
C163        C164   1.402       .  A
C163        C168   1.411       .  A
C164        C165   1.401       .  A
C164        H173   1.084       .  S
C165        C166   1.413       .  A
C165        S169   1.803       .  S
C166        C167   1.402       .  A
C167        C168   1.398       .  A
C167        H762   1.084       .  S
C168        S758   1.804       .  S
S169        H172   1.403       .  S
S170        C756   1.804   1_545  S
S170        H171   1.406       .  S
H174        C755   1.084   1_545  S
C175        C176   1.402       .  A
C175        C180   1.412       .  A
C176        C177   1.398       .  A
C176        H773   1.084       .  S
C177        C178   1.412       .  A
C177        S769   1.804       .  S
C178        C179   1.402       .  A
C179        C180   1.401       .  A
C179        H186   1.084       .  S
C180        S182   1.803       .  S
S181        C765   1.804   1_545  S
S181        H184   1.405       .  S
S182        H183   1.403       .  S
H185        C764   1.084   1_545  S
C187        C188   1.404       .  A
C187        C192   1.411       .  A
C188        C189   1.403       .  A
C188        H197   1.084       .  S
C189        C190   1.414       .  A
C189        S193   1.804       .  S
C190        C191   1.402       .  A
C191        C192   1.395       .  A
C191        H786   1.084       .  S
C192        S782   1.804       .  S
S193        H196   1.405       .  S
S194        C780   1.804   1_545  S
S194        H195   1.406       .  S
H198        C779   1.084   1_545  S
C199        C200   1.403       .  A
C199       C1380   1.414       .  A
C199       C1235   1.480       .  S
C200        C201   1.393       .  A
C200        H209   1.084       .  S
C201        C202   1.412       .  A
C201        S205   1.806       .  S
C202       C1379   1.405       .  A
C203        C204   1.405       .  A
C203       C1378   1.405   1_455  A
C203        H210   1.084       .  S
C204       C1375   1.414   1_455  A
C204        S206   1.803       .  S
S205        H208   1.406       .  S
S206        H207   1.405       .  S
C211        C212   1.403       .  A
C211       C1392   1.415       .  A
C211       C1233   1.481       .  S
C212        C213   1.392       .  A
C212        H221   1.085       .  S
C213        C214   1.413       .  A
C213        S217   1.806       .  S
C214       C1391   1.405       .  A
C215        C216   1.405       .  A
C215       C1390   1.405   1_455  A
C215        H222   1.084       .  S
C216       C1387   1.415   1_455  A
C216        S218   1.803       .  S
S217        H220   1.406       .  S
S218        H219   1.405       .  S
C223        C224   1.402       .  A
C223       C1404   1.414       .  A
C224        C225   1.392       .  A
C224        H233   1.084       .  S
C225       C1402   1.412       .  A
C225        S229   1.803       .  S
C226        C227   1.406   1_655  A
C226       C1401   1.412       .  A
C227        C228   1.405       .  A
C227        H234   1.084       .  S
C228       C1399   1.414   1_455  A
C228        S230   1.803       .  S
S229        H232   1.406       .  S
S230        H231   1.405       .  S
C235        C236   1.404   1_655  A
C235       C1416   1.411       .  A
C236        C237   1.404       .  A
C236        H245   1.084       .  S
C237        C238   1.414       .  A
C237        S241   1.804       .  S
C238       C1415   1.401   1_455  A
C238       C1242   1.475       .  S
C239        C240   1.394       .  A
C239       C1414   1.401       .  A
C239        H246   1.085       .  S
C240       C1411   1.411       .  A
C240        S242   1.803       .  S
S241        H244   1.404       .  S
S242        H243   1.406       .  S
C247        C248   1.402   1_556  A
C247        C546   1.411       .  A
C248        C249   1.400       .  A
C248        H257   1.084       .  S
C249        C250   1.413       .  A
C249        S253   1.803       .  S
C250        C545   1.402   1_554  A
C251        C252   1.398       .  A
C251        C544   1.402       .  A
C251        H258   1.084       .  S
C252        C541   1.411       .  A
C252        S254   1.804       .  S
S253        H256   1.403       .  S
S254        H255   1.405       .  S
C259        C260   1.402   1_556  A
C259        C558   1.411       .  A
C260        C261   1.401       .  A
C260        H269   1.084       .  S
C261        C262   1.413       .  A
C261        S265   1.803       .  S
C262        C557   1.402   1_554  A
C263        C264   1.398       .  A
C263        C556   1.402       .  A
C263        H270   1.084       .  S
C264        C553   1.411       .  A
C264        S266   1.804       .  S
S265        H268   1.403       .  S
S266        H267   1.405       .  S
C271        C272   1.402   1_556  A
C271        C570   1.411       .  A
C272        C273   1.401       .  A
C272        H281   1.084       .  S
C273        C274   1.413       .  A
C273        S277   1.803       .  S
C274        C569   1.402   1_554  A
C275        C276   1.397       .  A
C275        C568   1.402       .  A
C275        H282   1.084       .  S
C276        C565   1.411       .  A
C276        S278   1.804       .  S
S277        H280   1.402       .  S
S278        H279   1.405       .  S
C283        C284   1.402   1_556  A
C283        C582   1.411       .  A
C283        C297   1.473   1_556  S
C284        C285   1.400       .  A
C284        H293   1.084       .  S
C285        C286   1.412       .  A
C285        S289   1.803       .  S
C286        C581   1.402   1_554  A
C287        C288   1.398       .  A
C287        C580   1.402       .  A
C287        H294   1.084       .  S
C288        C577   1.411       .  A
C288        S290   1.804       .  S
S289        H292   1.403       .  S
S290        H291   1.405       .  S
C295        C296   1.410       .  A
C296        C297   1.401       .  A
C296        H301   1.083       .  S
C298        C299   1.398       .  A
C298        H302   1.084       .  S
C299        C300   1.402       .  A
C299        C568   1.475       .  S
C300        H303   1.083       .  S
C304        C305   1.410       .  A
C304        C309   1.411       .  A
C304        C443   1.483       .  S
C305        C306   1.402       .  A
C305        H310   1.083       .  S
C306        C307   1.397       .  A
C306        C565   1.474       .  S
C307        C308   1.397       .  A
C307        H311   1.085       .  S
C308        C309   1.402       .  A
C308        C556   1.475       .  S
C309        H312   1.083       .  S
C313        C318   1.411       .  A
C313        C430   1.482       .  S
C314        H319   1.083       .  S
C315        C316   1.397       .  A
C315        C544   1.474       .  S
C316        C317   1.397       .  A
C316        H320   1.084       .  S
C317        C318   1.402       .  A
C317        C553   1.474       .  S
C318        H321   1.083       .  S
C322        C323   1.410       .  A
C322        C327   1.410       .  A
C322        C444   1.481       .  S
C323        C324   1.401       .  A
C323        H328   1.083       .  S
C324        C325   1.397       .  A
C324        C580   1.473       .  S
C325        C326   1.397       .  A
C325        H329   1.085       .  S
C326        C327   1.401       .  A
C326        C541   1.473       .  S
C327        H330   1.083       .  S
C331        C332   1.411       .  A
C331        C336   1.411   1_455  A
C331       C1618   1.481       .  S
C332        C333   1.400   1_455  A
C332        H337   1.083       .  S
C333        C334   1.398       .  A
C333        C529   1.477       .  S
C334        C335   1.400       .  A
C334        H338   1.084       .  S
C335        C336   1.402       .  A
C335        C520   1.481       .  S
C336        H339   1.083       .  S
C340        C341   1.412       .  A
C340        C345   1.412       .  A
C340        C415   1.480       .  S
C341        C342   1.401       .  A
C341        H346   1.083       .  S
C342        C343   1.398       .  A
C342        C517   1.479       .  S
C343        C344   1.398       .  A
C343        H347   1.084       .  S
C344        C345   1.401       .  A
C344        C508   1.480       .  S
C345        H348   1.083       .  S
C349        C350   1.412       .  A
C349        C354   1.412       .  A
C349       C1617   1.481       .  S
C350        C351   1.402       .  A
C350        H355   1.083   1_455  S
C351        C352   1.398       .  A
C351       C1681   1.481   1_455  S
C352        C353   1.397       .  A
C352        H356   1.084       .  S
C353        C354   1.402       .  A
C353       C1669   1.480   1_455  S
C354        H357   1.083       .  S
C358        C359   1.411       .  A
C358        C363   1.412       .  A
C358        C416   1.481       .  S
C359        C360   1.400       .  A
C359        H364   1.083       .  S
C360        C361   1.397       .  A
C360       C1708   1.475       .  S
C361        C362   1.398       .  A
C361        H365   1.084       .  S
C362        C363   1.402       .  A
C362        C496   1.479       .  S
C363        H366   1.083       .  S
C367        C368   1.411       .  A
C367        C372   1.411       .  A
C367        C428   1.482       .  S
C368        C369   1.401       .  A
C368        H373   1.083       .  S
C369        C370   1.398       .  A
C369        C481   1.475       .  S
C370        C371   1.396       .  A
C370        H374   1.084       .  S
C371        C372   1.401       .  A
C371        C472   1.474       .  S
C372        H375   1.083       .  S
C376        C377   1.410       .  A
C376        C381   1.410       .  A
C376        C414   1.483       .  S
C377        C378   1.402       .  A
C377        H382   1.083       .  S
C378        C379   1.397       .  A
C378        C469   1.475       .  S
C379        C380   1.398       .  A
C379        H383   1.085       .  S
C380        C381   1.402       .  A
C380        C460   1.475       .  S
C381        H384   1.083       .  S
C385        C386   1.410       .  A
C385        C390   1.410       .  A
C385        C427   1.481       .  S
C386        C387   1.402       .  A
C386        H391   1.083       .  S
C387        C388   1.397       .  A
C387        C457   1.474       .  S
C388        C389   1.397       .  A
C388        H392   1.084       .  S
C389        C390   1.401       .  A
C389        C448   1.473       .  S
C390        H393   1.083       .  S
C394        C395   1.411       .  A
C394        C399   1.410       .  A
C394        C413   1.480       .  S
C395        C396   1.402       .  A
C395        H400   1.083       .  S
C396        C397   1.398       .  A
C396        C484   1.475       .  S
C397        C398   1.395       .  A
C397        H401   1.085       .  S
C398        C399   1.400       .  A
C398        C445   1.472       .  S
C399        H402   1.083       .  S
O403        C413   1.278       .  A
O403      Cu1587   2.007       .  S
O404        C414   1.279       .  A
O404       Cu411   2.011       .  S
O405        C415   1.278       .  A
O405       Cu411   2.006       .  S
O406        C416   1.278       .  A
O406       Cu999   2.007   1_545  S
O407        C416   1.278       .  A
O407      Cu1000   2.009   1_545  S
O408        C415   1.278       .  A
O408       Cu412   2.008       .  S
O409        C414   1.278       .  A
O409       Cu412   2.010       .  S
O410        C413   1.278       .  A
O410      Cu1588   2.006       .  S
Cu411      O1579   2.007       .  S
Cu411       O994   2.007       .  S
Cu411      Cu412   2.370       .  S
Cu412       O995   2.009       .  S
Cu412      O1586   2.006       .  S
O417        C427   1.278       .  A
O417       Cu425   2.008       .  S
O418        C428   1.278       .  A
O419        C429   1.278       .  A
O419       Cu425   2.008       .  S
O420        C430   1.278       .  A
O420      Cu1013   2.010   1_545  S
O421        C430   1.278       .  A
O421      Cu1014   2.011   1_545  S
O422        C429   1.278       .  A
O422       Cu426   2.008       .  S
O423        C428   1.278       .  A
O424        C427   1.278       .  A
O424       Cu426   2.009       .  S
Cu425      O1008   2.010       .  S
Cu425      Cu426   2.370       .  S
Cu426      O1009   2.011       .  S
O431        C441   1.278       .  A
O431       Cu439   2.008       .  S
O432        C442   1.278       .  A
O433        C443   1.279       .  A
O433       Cu439   2.012       .  S
O434        C444   1.278       .  A
O434      Cu1615   2.008       .  S
O435        C444   1.278       .  A
O435      Cu1616   2.007       .  S
O436        C443   1.278       .  A
O436       Cu440   2.010       .  S
O437        C442   1.278       .  A
O438        C441   1.278       .  A
O438       Cu440   2.008       .  S
Cu439      O1610   2.008       .  S
Cu439      Cu440   2.370       .  S
Cu440      O1611   2.007       .  S
C441       C1525   1.481       .  S
C442       C1507   1.481       .  S
C445        C446   1.401       .  A
C445        C450   1.411       .  A
C446        C447   1.400       .  A
C446        H455   1.084       .  S
C447        C448   1.412       .  A
C447        S451   1.803       .  S
C448        C449   1.402       .  A
C449        C450   1.398       .  A
C449       H1044   1.084       .  S
C450       S1040   1.804       .  S
S451        H454   1.403       .  S
S452       C1038   1.804   1_545  S
S452        H453   1.405       .  S
H456       C1037   1.084   1_545  S
C457        C458   1.402       .  A
C457        C462   1.411       .  A
C458        C459   1.401       .  A
C458        H467   1.084       .  S
C459        C460   1.413       .  A
C459        S463   1.803       .  S
C460        C461   1.402       .  A
C461        C462   1.398       .  A
C461       H1056   1.084       .  S
C462       S1052   1.804       .  S
S463        H466   1.403       .  S
S464       C1050   1.804   1_545  S
S464        H465   1.406       .  S
H468       C1049   1.084   1_545  S
C469        C470   1.402       .  A
C469        C474   1.412       .  A
C470        C471   1.398       .  A
C470       H1067   1.084       .  S
C471        C472   1.412       .  A
C471       S1063   1.804       .  S
C472        C473   1.402       .  A
C473        C474   1.401       .  A
C473        H480   1.084       .  S
C474        S476   1.803       .  S
S475       C1059   1.804   1_545  S
S475        H478   1.405       .  S
S476        H477   1.403       .  S
H479       C1058   1.084   1_545  S
C481        C482   1.404       .  A
C481        C486   1.411       .  A
C482        C483   1.403       .  A
C482        H491   1.084       .  S
C483        C484   1.414       .  A
C483        S487   1.804       .  S
C484        C485   1.402       .  A
C485        C486   1.395       .  A
C485       H1080   1.084       .  S
C486       S1076   1.804       .  S
S487        H490   1.405       .  S
S488       C1074   1.804   1_545  S
S488        H489   1.406       .  S
H492       C1073   1.084   1_545  S
C493        C494   1.403       .  A
C493       C1674   1.414       .  A
C493       C1529   1.480       .  S
C494        C495   1.393       .  A
C494        H503   1.084       .  S
C495        C496   1.412       .  A
C495        S499   1.806       .  S
C496       C1673   1.405       .  A
C497       C1672   1.405   1_455  A
C497        C498   1.405       .  A
C497        H504   1.084       .  S
C498       C1669   1.414   1_455  A
C498        S500   1.803       .  S
S499        H502   1.406       .  S
S500        H501   1.405       .  S
C505        C506   1.403       .  A
C505       C1686   1.415       .  A
C505       C1527   1.481       .  S
C506        C507   1.392       .  A
C506        H515   1.085       .  S
C507        C508   1.413       .  A
C507        S511   1.806       .  S
C508       C1685   1.405       .  A
C509       C1684   1.405   1_455  A
C509        C510   1.405       .  A
C509        H516   1.084       .  S
C510       C1681   1.415   1_455  A
C510        S512   1.803       .  S
S511        H514   1.406       .  S
S512        H513   1.405       .  S
C517        C518   1.402       .  A
C517       C1698   1.414       .  A
C518        C519   1.392       .  A
C518        H527   1.084       .  S
C519       C1696   1.412       .  A
C519        S523   1.803       .  S
C520       C1695   1.412       .  A
C520        C521   1.406   1_655  A
C521        C522   1.405       .  A
C521        H528   1.084       .  S
C522       C1693   1.414   1_455  A
C522        S524   1.803       .  S
S523        H526   1.406       .  S
S524        H525   1.405       .  S
C529        C530   1.404   1_655  A
C529       C1710   1.411       .  A
C530        C531   1.404       .  A
C530        H539   1.084       .  S
C531        C532   1.414       .  A
C531        S535   1.804       .  S
C532       C1709   1.401   1_455  A
C532       C1536   1.475       .  S
C533       C1708   1.401       .  A
C533        C534   1.394       .  A
C533        H540   1.085       .  S
C534       C1705   1.411       .  A
C534        S536   1.803       .  S
S535        H538   1.404       .  S
S536        H537   1.406       .  S
C541        C542   1.402       .  A
C542        C543   1.400       .  A
C542        H551   1.084       .  S
C543        C544   1.413       .  A
C543        S547   1.803       .  S
C545        C546   1.398       .  A
C545        H552   1.084       .  S
C546        S548   1.804       .  S
S547        H550   1.403       .  S
S548        H549   1.405       .  S
C553        C554   1.402       .  A
C554        C555   1.401       .  A
C554        H563   1.084       .  S
C555        C556   1.413       .  A
C555        S559   1.803       .  S
C557        C558   1.398       .  A
C557        H564   1.084       .  S
C558        S560   1.804       .  S
S559        H562   1.403       .  S
S560        H561   1.405       .  S
C565        C566   1.402       .  A
C566        C567   1.401       .  A
C566        H575   1.084       .  S
C567        C568   1.413       .  A
C567        S571   1.803       .  S
C569        C570   1.397       .  A
C569        H576   1.084       .  S
C570        S572   1.804       .  S
S571        H574   1.402       .  S
S572        H573   1.405       .  S
C577        C578   1.402       .  A
C578        C579   1.400       .  A
C578        H587   1.084       .  S
C579        C580   1.412       .  A
C579        S583   1.803       .  S
C581        C582   1.398       .  A
C581        H588   1.084       .  S
C582        S584   1.804       .  S
S583        H586   1.403       .  S
S584        H585   1.405       .  S
C589        C590   1.410       .  A
C589        C888   1.410       .  A
C589       C1017   1.481       .  S
C590        C591   1.401       .  A
C590        H595   1.083       .  S
C591        C886   1.397       .  A
C591       C1165   1.473       .  S
C592        C885   1.397       .  A
C592        C593   1.398       .  A
C592        H596   1.084       .  S
C593        C594   1.402       .  A
C593        C862   1.475       .  S
C594        C883   1.410       .  A
C594        H597   1.083       .  S
C598        C599   1.410       .  A
C598        C603   1.411       .  A
C598        C737   1.483       .  S
C599        C600   1.402       .  A
C599        H604   1.083       .  S
C600        C601   1.397       .  A
C600        C859   1.474   1_554  S
C601        C602   1.397       .  A
C601        H605   1.085       .  S
C602        C603   1.402       .  A
C602        C850   1.475       .  S
C603        H606   1.083       .  S
C607        C902   1.410       .  A
C607        C612   1.411       .  A
C607        C724   1.482       .  S
C608        C901   1.410       .  A
C608        C903   1.402       .  A
C608        H613   1.083       .  S
C609        C902   1.402       .  A
C609        C610   1.397       .  A
C609        C838   1.474       .  S
C610        C611   1.397       .  A
C610        H614   1.084       .  S
C611        C612   1.402       .  A
C611        C847   1.474   1_554  S
C612        H615   1.083       .  S
C616        C617   1.410       .  A
C616        C621   1.410       .  A
C616        C738   1.481       .  S
C617        C618   1.401       .  A
C617        H622   1.083       .  S
C618        C619   1.397       .  A
C618        C874   1.473       .  S
C619        C620   1.397       .  A
C619        H623   1.085       .  S
C620        C621   1.401       .  A
C620        C835   1.473   1_554  S
C621        H624   1.083       .  S
C625        C626   1.411       .  A
C625        C630   1.411   1_455  A
C625       C1912   1.481       .  S
C626        C627   1.400   1_455  A
C626        H631   1.083       .  S
C627        C628   1.398       .  A
C627        C823   1.477       .  S
C628        C629   1.400       .  A
C628        H632   1.084       .  S
C629        C630   1.402       .  A
C629        C814   1.481       .  S
C630        H633   1.083       .  S
C634        C635   1.412       .  A
C634        C639   1.412       .  A
C634        C709   1.480       .  S
C635        C636   1.401       .  A
C635        H640   1.083       .  S
C636        C637   1.398       .  A
C636        C811   1.479       .  S
C637        C638   1.398       .  A
C637        H641   1.084       .  S
C638        C639   1.401       .  A
C638        C802   1.480       .  S
C639        H642   1.083       .  S
C643        C644   1.412       .  A
C643        C648   1.412       .  A
C643       C1911   1.481       .  S
C644        C645   1.402       .  A
C644        H649   1.083   1_455  S
C645        C646   1.398       .  A
C645       C1975   1.481   1_455  S
C646        C647   1.397       .  A
C646        H650   1.084       .  S
C647        C648   1.402       .  A
C647       C1963   1.480   1_455  S
C648        H651   1.083       .  S
C652        C653   1.411       .  A
C652        C657   1.412       .  A
C652        C710   1.481       .  S
C653        C654   1.400       .  A
C653        H658   1.083       .  S
C654        C655   1.397       .  A
C654       C2002   1.475       .  S
C655        C656   1.398       .  A
C655        H659   1.084       .  S
C656        C657   1.402       .  A
C656        C790   1.479       .  S
C657        H660   1.083       .  S
C661        C662   1.411       .  A
C661        C666   1.411       .  A
C661        C722   1.482       .  S
C662        C663   1.401       .  A
C662        H667   1.083       .  S
C663        C664   1.398       .  A
C663        C775   1.475       .  S
C664        C665   1.396       .  A
C664        H668   1.084       .  S
C665        C666   1.401       .  A
C665        C766   1.474       .  S
C666        H669   1.083       .  S
C670        C671   1.410       .  A
C670        C675   1.410       .  A
C670        C708   1.483       .  S
C671        C672   1.402       .  A
C671        H676   1.083       .  S
C672        C673   1.397       .  A
C672        C763   1.475       .  S
C673        C674   1.398       .  A
C673        H677   1.085       .  S
C674        C675   1.402       .  A
C674        C754   1.475       .  S
C675        H678   1.083       .  S
C679        C680   1.410       .  A
C679        C684   1.410       .  A
C679        C721   1.481       .  S
C680        C681   1.402       .  A
C680        H685   1.083       .  S
C681        C682   1.397       .  A
C681        C751   1.474       .  S
C682        C683   1.397       .  A
C682        H686   1.084       .  S
C683        C684   1.401       .  A
C683        C742   1.473       .  S
C684        H687   1.083       .  S
C688        C689   1.411       .  A
C688        C693   1.410       .  A
C688        C707   1.480       .  S
C689        C690   1.402       .  A
C689        H694   1.083       .  S
C690        C691   1.398       .  A
C690        C778   1.475       .  S
C691        C692   1.395       .  A
C691        H695   1.085       .  S
C692        C693   1.400       .  A
C692        C739   1.472       .  S
C693        H696   1.083       .  S
O697        C707   1.278       .  A
O697      Cu1881   2.007       .  S
O698        C708   1.279       .  A
O698       Cu705   2.011       .  S
O699        C709   1.278       .  A
O699       Cu705   2.006       .  S
O700        C710   1.278       .  A
O701        C710   1.278       .  A
O702        C709   1.278       .  A
O702       Cu706   2.008       .  S
O703        C708   1.278       .  A
O703       Cu706   2.010       .  S
O704        C707   1.278       .  A
O704      Cu1882   2.006       .  S
Cu705      O1873   2.007       .  S
Cu705      Cu706   2.370       .  S
Cu706      O1880   2.006       .  S
O711        C721   1.278       .  A
O711       Cu719   2.008       .  S
O712        C722   1.278       .  A
O712      Cu1013   2.009       .  S
O713        C723   1.278       .  A
O713       Cu719   2.008       .  S
O714        C724   1.278       .  A
O715        C724   1.278       .  A
O716        C723   1.278       .  A
O716       Cu720   2.008       .  S
O717        C722   1.278       .  A
O717      Cu1014   2.009       .  S
O718        C721   1.278       .  A
O718       Cu720   2.009       .  S
Cu719      O1006   2.009   1_554  S
Cu719      Cu720   2.370       .  S
Cu720      O1011   2.009   1_554  S
C723        C883   1.481       .  S
O725        C735   1.278       .  A
O725       Cu733   2.008       .  S
O726        C736   1.278       .  A
O726      Cu1027   2.009       .  S
O727        C737   1.279       .  A
O727       Cu733   2.012       .  S
O728        C738   1.278       .  A
O728      Cu1909   2.008       .  S
O729        C738   1.278       .  A
O729      Cu1910   2.007       .  S
O730        C737   1.278       .  A
O730       Cu734   2.010       .  S
O731        C736   1.278       .  A
O731      Cu1028   2.008       .  S
O732        C735   1.278       .  A
O732       Cu734   2.008       .  S
Cu733      O1020   2.009   1_554  S
Cu733      O1904   2.008       .  S
Cu733      Cu734   2.370       .  S
Cu734      O1905   2.007       .  S
Cu734      O1025   2.008   1_554  S
C735       C1819   1.481       .  S
C736       C1801   1.481       .  S
C739        C740   1.401       .  A
C739        C744   1.411       .  A
C740        C741   1.400       .  A
C740        H749   1.084       .  S
C741        C742   1.412       .  A
C741        S745   1.803       .  S
C742        C743   1.402       .  A
C743        C744   1.398       .  A
S745        H748   1.403       .  S
S746        H747   1.405       .  S
C751        C752   1.402       .  A
C751        C756   1.411       .  A
C752        C753   1.401       .  A
C752        H761   1.084       .  S
C753        C754   1.413       .  A
C753        S757   1.803       .  S
C754        C755   1.402       .  A
C755        C756   1.398       .  A
S757        H760   1.403       .  S
S758        H759   1.406       .  S
C763        C764   1.402       .  A
C763        C768   1.412       .  A
C764        C765   1.398       .  A
C765        C766   1.412       .  A
C766        C767   1.402       .  A
C767        C768   1.401       .  A
C767        H774   1.084       .  S
C768        S770   1.803       .  S
S769        H772   1.405       .  S
S770        H771   1.403       .  S
C775        C776   1.404       .  A
C775        C780   1.411       .  A
C776        C777   1.403       .  A
C776        H785   1.084       .  S
C777        C778   1.414       .  A
C777        S781   1.804       .  S
C778        C779   1.402       .  A
C779        C780   1.395       .  A
S781        H784   1.405       .  S
S782        H783   1.406       .  S
C787        C788   1.403       .  A
C787       C1968   1.414       .  A
C787       C1823   1.480       .  S
C788        C789   1.393       .  A
C788        H797   1.084       .  S
C789        C790   1.412       .  A
C789        S793   1.806       .  S
C790       C1967   1.405       .  A
C791       C1966   1.405   1_455  A
C791        C792   1.405       .  A
C791        H798   1.084       .  S
C792       C1963   1.414   1_455  A
C792        S794   1.803       .  S
S793        H796   1.406       .  S
S794        H795   1.405       .  S
C799        C800   1.403       .  A
C799       C1980   1.415       .  A
C799       C1821   1.481       .  S
C800        C801   1.392       .  A
C800        H809   1.085       .  S
C801        C802   1.413       .  A
C801        S805   1.806       .  S
C802       C1979   1.405       .  A
C803       C1978   1.405   1_455  A
C803        C804   1.405       .  A
C803        H810   1.084       .  S
C804       C1975   1.415   1_455  A
C804        S806   1.803       .  S
S805        H808   1.406       .  S
S806        H807   1.405       .  S
C811        C812   1.402       .  A
C811       C1992   1.414       .  A
C812        C813   1.392       .  A
C812        H821   1.084       .  S
C813       C1990   1.412       .  A
C813        S817   1.803       .  S
C814       C1989   1.412       .  A
C814        C815   1.406   1_655  A
C815        C816   1.405       .  A
C815        H822   1.084       .  S
C816       C1987   1.414   1_455  A
C816        S818   1.803       .  S
S817        H820   1.406       .  S
S818        H819   1.405       .  S
C823        C824   1.404   1_655  A
C823       C2004   1.411       .  A
C824        C825   1.404       .  A
C824        H833   1.084       .  S
C825        C826   1.414       .  A
C825        S829   1.804       .  S
C826       C2003   1.401   1_455  A
C826       C1830   1.475       .  S
C827       C2002   1.401       .  A
C827        C828   1.394       .  A
C827        H834   1.085       .  S
C828       C1999   1.411       .  A
C828        S830   1.803       .  S
S829        H832   1.404       .  S
S830        H831   1.406       .  S
C835        C836   1.402   1_556  A
C835       C1134   1.411       .  A
C836        C837   1.400       .  A
C836        H845   1.084       .  S
C837        C838   1.413       .  A
C837        S841   1.803       .  S
C838       C1133   1.402   1_554  A
C839       C1132   1.402       .  A
C839        C840   1.398       .  A
C839        H846   1.084       .  S
C840       C1129   1.411       .  A
C840        S842   1.804       .  S
S841        H844   1.403       .  S
S842        H843   1.405       .  S
C847        C848   1.402   1_556  A
C847       C1146   1.411       .  A
C848        C849   1.401       .  A
C848        H857   1.084       .  S
C849        C850   1.413       .  A
C849        S853   1.803       .  S
C850       C1145   1.402   1_554  A
C851       C1144   1.402       .  A
C851        C852   1.398       .  A
C851        H858   1.084       .  S
C852       C1141   1.411       .  A
C852        S854   1.804       .  S
S853        H856   1.403       .  S
S854        H855   1.405       .  S
C859        C860   1.402   1_556  A
C859       C1158   1.411       .  A
C860        C861   1.401       .  A
C860        H869   1.084       .  S
C861        C862   1.413       .  A
C861        S865   1.803       .  S
C862       C1157   1.402   1_554  A
C863       C1156   1.402       .  A
C863        C864   1.397       .  A
C863        H870   1.084       .  S
C864       C1153   1.411       .  A
C864        S866   1.804       .  S
S865        H868   1.402       .  S
S866        H867   1.405       .  S
C871        C872   1.402   1_556  A
C871       C1170   1.411       .  A
C871        C885   1.473   1_556  S
C872        C873   1.400       .  A
C872        H881   1.084       .  S
C873        C874   1.412       .  A
C873        S877   1.803       .  S
C874       C1169   1.402   1_554  A
C875       C1168   1.402       .  A
C875        C876   1.398       .  A
C875        H882   1.084       .  S
C876       C1165   1.411       .  A
C876        S878   1.804       .  S
S877        H880   1.403       .  S
S878        H879   1.405       .  S
C883        C884   1.410       .  A
C884        C885   1.401       .  A
C884        H889   1.083       .  S
C886        C887   1.398       .  A
C886        H890   1.084       .  S
C887        C888   1.402       .  A
C887       C1156   1.475       .  S
C888        H891   1.083       .  S
C892        C893   1.410       .  A
C892        C897   1.411       .  A
C892       C1031   1.483       .  S
C893        C894   1.402       .  A
C893        H898   1.083       .  S
C894        C895   1.397       .  A
C894       C1153   1.474       .  S
C895        C896   1.397       .  A
C895        H899   1.085       .  S
C896        C897   1.402       .  A
C896       C1144   1.475       .  S
C897        H900   1.083       .  S
C901        C906   1.411       .  A
C901       C1018   1.482       .  S
C902        H907   1.083       .  S
C903        C904   1.397       .  A
C903       C1132   1.474       .  S
C904        C905   1.397       .  A
C904        H908   1.084       .  S
C905        C906   1.402       .  A
C905       C1141   1.474       .  S
C906        H909   1.083       .  S
C910        C911   1.410       .  A
C910        C915   1.410       .  A
C910       C1032   1.481       .  S
C911        C912   1.401       .  A
C911        H916   1.083       .  S
C912        C913   1.397       .  A
C912       C1168   1.473       .  S
C913        C914   1.397       .  A
C913        H917   1.085       .  S
C914        C915   1.401       .  A
C914       C1129   1.473       .  S
C915        H918   1.083       .  S
C919        C920   1.411       .  A
C919        C924   1.411   1_455  A
C919       C2206   1.481       .  S
C920        C921   1.400   1_455  A
C920        H925   1.083       .  S
C921        C922   1.398       .  A
C921       C1117   1.477       .  S
C922        C923   1.400       .  A
C922        H926   1.084       .  S
C923        C924   1.402       .  A
C923       C1108   1.481       .  S
C924        H927   1.083       .  S
C928        C929   1.412       .  A
C928        C933   1.412       .  A
C928       C1003   1.480       .  S
C929        C930   1.401       .  A
C929        H934   1.083       .  S
C930        C931   1.398       .  A
C930       C1105   1.479       .  S
C931        C932   1.398       .  A
C931        H935   1.084       .  S
C932        C933   1.401       .  A
C932       C1096   1.480       .  S
C933        H936   1.083       .  S
C937        C938   1.412       .  A
C937        C942   1.412       .  A
C937       C2205   1.481       .  S
C938        C939   1.402       .  A
C938        H943   1.083   1_455  S
C939        C940   1.398       .  A
C939       C2269   1.481   1_455  S
C940        C941   1.397       .  A
C940        H944   1.084       .  S
C941        C942   1.402       .  A
C941       C2257   1.480   1_455  S
C942        H945   1.083       .  S
C946        C947   1.411       .  A
C946        C951   1.412       .  A
C946       C1004   1.481       .  S
C947        C948   1.400       .  A
C947        H952   1.083       .  S
C948        C949   1.397       .  A
C948       C2296   1.475       .  S
C949        C950   1.398       .  A
C949        H953   1.084       .  S
C950        C951   1.402       .  A
C950       C1084   1.479       .  S
C951        H954   1.083       .  S
C955        C956   1.411       .  A
C955        C960   1.411       .  A
C955       C1016   1.482       .  S
C956        C957   1.401       .  A
C956        H961   1.083       .  S
C957        C958   1.398       .  A
C957       C1069   1.475       .  S
C958        C959   1.396       .  A
C958        H962   1.084       .  S
C959        C960   1.401       .  A
C959       C1060   1.474       .  S
C960        H963   1.083       .  S
C964        C965   1.410       .  A
C964        C969   1.410       .  A
C964       C1002   1.483       .  S
C965        C966   1.402       .  A
C965        H970   1.083       .  S
C966        C967   1.397       .  A
C966       C1057   1.475       .  S
C967        C968   1.398       .  A
C967        H971   1.085       .  S
C968        C969   1.402       .  A
C968       C1048   1.475       .  S
C969        H972   1.083       .  S
C973        C974   1.410       .  A
C973        C978   1.410       .  A
C973       C1015   1.481       .  S
C974        C975   1.402       .  A
C974        H979   1.083       .  S
C975        C976   1.397       .  A
C975       C1045   1.474       .  S
C976        C977   1.397       .  A
C976        H980   1.084       .  S
C977        C978   1.401       .  A
C977       C1036   1.473       .  S
C978        H981   1.083       .  S
C982        C983   1.411       .  A
C982        C987   1.410       .  A
C982       C1001   1.480       .  S
C983        C984   1.402       .  A
C983        H988   1.083       .  S
C984        C985   1.398       .  A
C984       C1072   1.475       .  S
C985        C986   1.395       .  A
C985        H989   1.085       .  S
C986        C987   1.400       .  A
C986       C1033   1.472       .  S
C987        H990   1.083       .  S
O991       C1001   1.278       .  A
O991      Cu2175   2.007       .  S
O992       C1002   1.279       .  A
O992       Cu999   2.011       .  S
O993       C1003   1.278       .  A
O993       Cu999   2.006       .  S
O994       C1004   1.278       .  A
O995       C1004   1.278       .  A
O996       C1003   1.278       .  A
O996      Cu1000   2.008       .  S
O997       C1002   1.278       .  A
O997      Cu1000   2.010       .  S
O998       C1001   1.278       .  A
O998      Cu2176   2.006       .  S
Cu999      O2167   2.007       .  S
Cu999     Cu1000   2.370       .  S
Cu1000     O2174   2.006       .  S
O1005      C1015   1.278       .  A
O1005     Cu1013   2.008       .  S
O1006      C1016   1.278       .  A
O1007      C1017   1.278       .  A
O1007     Cu1013   2.008       .  S
O1008      C1018   1.278       .  A
O1009      C1018   1.278       .  A
O1010      C1017   1.278       .  A
O1010     Cu1014   2.008       .  S
O1011      C1016   1.278       .  A
O1012      C1015   1.278       .  A
O1012     Cu1014   2.009       .  S
Cu1013    Cu1014   2.370       .  S
O1019      C1029   1.278       .  A
O1019     Cu1027   2.008       .  S
O1020      C1030   1.278       .  A
O1021      C1031   1.279       .  A
O1021     Cu1027   2.012       .  S
O1022      C1032   1.278       .  A
O1022     Cu2203   2.008       .  S
O1023      C1032   1.278       .  A
O1023     Cu2204   2.007       .  S
O1024      C1031   1.278       .  A
O1024     Cu1028   2.010       .  S
O1025      C1030   1.278       .  A
O1026      C1029   1.278       .  A
O1026     Cu1028   2.008       .  S
Cu1027     O2198   2.008       .  S
Cu1027    Cu1028   2.370       .  S
Cu1028     O2199   2.007       .  S
C1029      C2113   1.481       .  S
C1030      C2095   1.481       .  S
C1033      C1034   1.401       .  A
C1033      C1038   1.411       .  A
C1034      C1035   1.400       .  A
C1034      H1043   1.084       .  S
C1035      C1036   1.412       .  A
C1035      S1039   1.803       .  S
C1036      C1037   1.402       .  A
C1037      C1038   1.398       .  A
S1039      H1042   1.403       .  S
S1040      H1041   1.405       .  S
C1045      C1046   1.402       .  A
C1045      C1050   1.411       .  A
C1046      C1047   1.401       .  A
C1046      H1055   1.084       .  S
C1047      C1048   1.413       .  A
C1047      S1051   1.803       .  S
C1048      C1049   1.402       .  A
C1049      C1050   1.398       .  A
S1051      H1054   1.403       .  S
S1052      H1053   1.406       .  S
C1057      C1058   1.402       .  A
C1057      C1062   1.412       .  A
C1058      C1059   1.398       .  A
C1059      C1060   1.412       .  A
C1060      C1061   1.402       .  A
C1061      C1062   1.401       .  A
C1061      H1068   1.084       .  S
C1062      S1064   1.803       .  S
S1063      H1066   1.405       .  S
S1064      H1065   1.403       .  S
C1069      C1070   1.404       .  A
C1069      C1074   1.411       .  A
C1070      C1071   1.403       .  A
C1070      H1079   1.084       .  S
C1071      C1072   1.414       .  A
C1071      S1075   1.804       .  S
C1072      C1073   1.402       .  A
C1073      C1074   1.395       .  A
S1075      H1078   1.405       .  S
S1076      H1077   1.406       .  S
C1081      C1082   1.403       .  A
C1081      C2262   1.414       .  A
C1081      C2117   1.480       .  S
C1082      C1083   1.393       .  A
C1082      H1091   1.084       .  S
C1083      C1084   1.412       .  A
C1083      S1087   1.806       .  S
C1084      C2261   1.405       .  A
C1085      C2260   1.405   1_455  A
C1085      C1086   1.405       .  A
C1085      H1092   1.084       .  S
C1086      C2257   1.414   1_455  A
C1086      S1088   1.803       .  S
S1087      H1090   1.406       .  S
S1088      H1089   1.405       .  S
C1093      C1094   1.403       .  A
C1093      C2274   1.415       .  A
C1093      C2115   1.481       .  S
C1094      C1095   1.392       .  A
C1094      H1103   1.085       .  S
C1095      C1096   1.413       .  A
C1095      S1099   1.806       .  S
C1096      C2273   1.405       .  A
C1097      C2272   1.405   1_455  A
C1097      C1098   1.405       .  A
C1097      H1104   1.084       .  S
C1098      C2269   1.415   1_455  A
C1098      S1100   1.803       .  S
S1099      H1102   1.406       .  S
S1100      H1101   1.405       .  S
C1105      C1106   1.402       .  A
C1105      C2286   1.414       .  A
C1106      C1107   1.392       .  A
C1106      H1115   1.084       .  S
C1107      C2284   1.412       .  A
C1107      S1111   1.803       .  S
C1108      C2283   1.412       .  A
C1108      C1109   1.406   1_655  A
C1109      C1110   1.405       .  A
C1109      H1116   1.084       .  S
C1110      C2281   1.414   1_455  A
C1110      S1112   1.803       .  S
S1111      H1114   1.406       .  S
S1112      H1113   1.405       .  S
C1117      C1118   1.404   1_655  A
C1117      C2298   1.411       .  A
C1118      C1119   1.404       .  A
C1118      H1127   1.084       .  S
C1119      C1120   1.414       .  A
C1119      S1123   1.804       .  S
C1120      C2297   1.401   1_455  A
C1120      C2124   1.475       .  S
C1121      C2296   1.401       .  A
C1121      C1122   1.394       .  A
C1121      H1128   1.085       .  S
C1122      C2293   1.411       .  A
C1122      S1124   1.803       .  S
S1123      H1126   1.404       .  S
S1124      H1125   1.406       .  S
C1129      C1130   1.402       .  A
C1130      C1131   1.400       .  A
C1130      H1139   1.084       .  S
C1131      C1132   1.413       .  A
C1131      S1135   1.803       .  S
C1133      C1134   1.398       .  A
C1133      H1140   1.084       .  S
C1134      S1136   1.804       .  S
S1135      H1138   1.403       .  S
S1136      H1137   1.405       .  S
C1141      C1142   1.402       .  A
C1142      C1143   1.401       .  A
C1142      H1151   1.084       .  S
C1143      C1144   1.413       .  A
C1143      S1147   1.803       .  S
C1145      C1146   1.398       .  A
C1145      H1152   1.084       .  S
C1146      S1148   1.804       .  S
S1147      H1150   1.403       .  S
S1148      H1149   1.405       .  S
C1153      C1154   1.402       .  A
C1154      C1155   1.401       .  A
C1154      H1163   1.084       .  S
C1155      C1156   1.413       .  A
C1155      S1159   1.803       .  S
C1157      C1158   1.397       .  A
C1157      H1164   1.084       .  S
C1158      S1160   1.804       .  S
S1159      H1162   1.402       .  S
S1160      H1161   1.405       .  S
C1165      C1166   1.402       .  A
C1166      C1167   1.400       .  A
C1166      H1175   1.084       .  S
C1167      C1168   1.412       .  A
C1167      S1171   1.803       .  S
C1169      C1170   1.398       .  A
C1169      H1176   1.084       .  S
C1170      S1172   1.804       .  S
S1171      H1174   1.403       .  S
S1172      H1173   1.405       .  S
C1177      C1178   1.410       .  A
C1177      C1476   1.410       .  A
C1177      C1605   1.481       .  S
C1178      C1179   1.401       .  A
C1178      H1183   1.083       .  S
C1179      C1474   1.397       .  A
C1179      C1753   1.473       .  S
C1180      C1473   1.397       .  A
C1180      C1181   1.398       .  A
C1180      H1184   1.084       .  S
C1181      C1182   1.402       .  A
C1181      C1450   1.475       .  S
C1182      C1471   1.410       .  A
C1182      H1185   1.083       .  S
C1186      C1187   1.410       .  A
C1186      C1191   1.411       .  A
C1186      C1325   1.483       .  S
C1187      C1188   1.402       .  A
C1187      H1192   1.083       .  S
C1188      C1189   1.397       .  A
C1188      C1447   1.474   1_554  S
C1189      C1190   1.397       .  A
C1189      H1193   1.085       .  S
C1190      C1191   1.402       .  A
C1190      C1438   1.475       .  S
C1191      H1194   1.083       .  S
C1195      C1490   1.410       .  A
C1195      C1200   1.411       .  A
C1195      C1312   1.482       .  S
C1196      C1489   1.410       .  A
C1196      C1491   1.402       .  A
C1196      H1201   1.083       .  S
C1197      C1490   1.402       .  A
C1197      C1198   1.397       .  A
C1197      C1426   1.474       .  S
C1198      C1199   1.397       .  A
C1198      H1202   1.084       .  S
C1199      C1200   1.402       .  A
C1199      C1435   1.474   1_554  S
C1200      H1203   1.083       .  S
C1204      C1205   1.410       .  A
C1204      C1209   1.410       .  A
C1204      C1326   1.481       .  S
C1205      C1206   1.401       .  A
C1205      H1210   1.083       .  S
C1206      C1207   1.397       .  A
C1206      C1462   1.473       .  S
C1207      C1208   1.397       .  A
C1207      H1211   1.085       .  S
C1208      C1209   1.401       .  A
C1208      C1423   1.473   1_554  S
C1209      H1212   1.083       .  S
C1213      C1214   1.411       .  A
C1213      C1218   1.411       .  A
C1214      C1215   1.400       .  A
C1214      H1219   1.083       .  S
C1215      C1216   1.398       .  A
C1215      C1411   1.477       .  S
C1216      C1217   1.400       .  A
C1216      H1220   1.084       .  S
C1217      C1218   1.402       .  A
C1217      C1402   1.481       .  S
C1218      H1221   1.083       .  S
C1222      C1223   1.412       .  A
C1222      C1227   1.412       .  A
C1222      C1297   1.480       .  S
C1223      C1224   1.401       .  A
C1223      H1228   1.083       .  S
C1224      C1225   1.398       .  A
C1224      C1399   1.479   1_455  S
C1225      C1226   1.398       .  A
C1225      H1229   1.084       .  S
C1226      C1227   1.401       .  A
C1226      C1390   1.480   1_455  S
C1227      H1230   1.083   1_455  S
C1231      C1232   1.412       .  A
C1231      C1236   1.412       .  A
C1232      C1233   1.402       .  A
C1232      H1237   1.083       .  S
C1233      C1234   1.398       .  A
C1234      C1235   1.397       .  A
C1234      H1238   1.084       .  S
C1235      C1236   1.402       .  A
C1236      H1239   1.083       .  S
C1240      C1241   1.411       .  A
C1240      C1245   1.412       .  A
C1240      C1298   1.481       .  S
C1241      C1242   1.400       .  A
C1241      H1246   1.083       .  S
C1242      C1243   1.397       .  A
C1243      C1244   1.398       .  A
C1243      H1247   1.084       .  S
C1244      C1245   1.402       .  A
C1244      C1378   1.479   1_455  S
C1245      H1248   1.083   1_455  S
C1249      C1250   1.411       .  A
C1249      C1254   1.411       .  A
C1249      C1310   1.482       .  S
C1250      C1251   1.401       .  A
C1250      H1255   1.083       .  S
C1251      C1252   1.398       .  A
C1251      C1363   1.475       .  S
C1252      C1253   1.396       .  A
C1252      H1256   1.084       .  S
C1253      C1254   1.401       .  A
C1253      C1354   1.474       .  S
C1254      H1257   1.083       .  S
C1258      C1259   1.410       .  A
C1258      C1263   1.410       .  A
C1258      C1296   1.483       .  S
C1259      C1260   1.402       .  A
C1259      H1264   1.083       .  S
C1260      C1261   1.397       .  A
C1260      C1351   1.475       .  S
C1261      C1262   1.398       .  A
C1261      H1265   1.085       .  S
C1262      C1263   1.402       .  A
C1262      C1342   1.475       .  S
C1263      H1266   1.083       .  S
C1267      C1268   1.410       .  A
C1267      C1272   1.410       .  A
C1267      C1309   1.481       .  S
C1268      C1269   1.402       .  A
C1268      H1273   1.083       .  S
C1269      C1270   1.397       .  A
C1269      C1339   1.474       .  S
C1270      C1271   1.397       .  A
C1270      H1274   1.084       .  S
C1271      C1272   1.401       .  A
C1271      C1330   1.473       .  S
C1272      H1275   1.083       .  S
C1276      C1277   1.411       .  A
C1276      C1281   1.410       .  A
C1276      C1295   1.480       .  S
C1277      C1278   1.402       .  A
C1277      H1282   1.083       .  S
C1278      C1279   1.398       .  A
C1278      C1366   1.475       .  S
C1279      C1280   1.395       .  A
C1279      H1283   1.085       .  S
C1280      C1281   1.400       .  A
C1280      C1327   1.472       .  S
C1281      H1284   1.083       .  S
O1285      C1295   1.278       .  A
O1286      C1296   1.279       .  A
O1286     Cu1293   2.011   1_655  S
O1287      C1297   1.278       .  A
O1287     Cu1293   2.006       .  S
O1288      C1298   1.278       .  A
O1288     Cu1881   2.007   1_545  S
O1289      C1298   1.278       .  A
O1289     Cu1882   2.009   1_545  S
O1290      C1297   1.278       .  A
O1290     Cu1294   2.008       .  S
O1291      C1296   1.278       .  A
O1291     Cu1294   2.010   1_655  S
O1292      C1295   1.278       .  A
Cu1293     O1876   2.007       .  S
Cu1293    Cu1294   2.370       .  S
Cu1294     O1877   2.009       .  S
O1299      C1309   1.278       .  A
O1299     Cu1307   2.008       .  S
O1300      C1310   1.278       .  A
O1300     Cu1601   2.009       .  S
O1301      C1311   1.278       .  A
O1301     Cu1307   2.008       .  S
O1302      C1312   1.278       .  A
O1302     Cu1895   2.010   1_545  S
O1303      C1312   1.278       .  A
O1303     Cu1896   2.011   1_545  S
O1304      C1311   1.278       .  A
O1304     Cu1308   2.008       .  S
O1305      C1310   1.278       .  A
O1305     Cu1602   2.009       .  S
O1306      C1309   1.278       .  A
O1306     Cu1308   2.009       .  S
Cu1307     O1594   2.009   1_554  S
Cu1307     O1890   2.010       .  S
Cu1307    Cu1308   2.370       .  S
Cu1308     O1891   2.011       .  S
Cu1308     O1599   2.009   1_554  S
C1311      C1471   1.481       .  S
O1313      C1323   1.278       .  A
O1313     Cu1321   2.008       .  S
O1314      C1324   1.278       .  A
O1314     Cu1615   2.009       .  S
O1315      C1325   1.279       .  A
O1315     Cu1321   2.012   1_655  S
O1316      C1326   1.278       .  A
O1317      C1326   1.278       .  A
O1318      C1325   1.278       .  A
O1318     Cu1322   2.010   1_655  S
O1319      C1324   1.278       .  A
O1319     Cu1616   2.008       .  S
O1320      C1323   1.278       .  A
O1320     Cu1322   2.008       .  S
Cu1321     O1608   2.009   1_554  S
Cu1321    Cu1322   2.370       .  S
Cu1322     O1613   2.008   1_554  S
C1327      C1328   1.401       .  A
C1327      C1332   1.411       .  A
C1328      C1329   1.400       .  A
C1328      H1337   1.084       .  S
C1329      C1330   1.412       .  A
C1329      S1333   1.803       .  S
C1330      C1331   1.402       .  A
C1331      C1332   1.398       .  A
C1331      H1926   1.084       .  S
C1332      S1922   1.804       .  S
S1333      H1336   1.403       .  S
S1334      C1920   1.804   1_545  S
S1334      H1335   1.405       .  S
H1338      C1919   1.084   1_545  S
C1339      C1340   1.402       .  A
C1339      C1344   1.411       .  A
C1340      C1341   1.401       .  A
C1340      H1349   1.084       .  S
C1341      C1342   1.413       .  A
C1341      S1345   1.803       .  S
C1342      C1343   1.402       .  A
C1343      C1344   1.398       .  A
C1343      H1938   1.084       .  S
C1344      S1934   1.804       .  S
S1345      H1348   1.403       .  S
S1346      C1932   1.804   1_545  S
S1346      H1347   1.406       .  S
H1350      C1931   1.084   1_545  S
C1351      C1352   1.402       .  A
C1351      C1356   1.412       .  A
C1352      C1353   1.398       .  A
C1352      H1949   1.084       .  S
C1353      C1354   1.412       .  A
C1353      S1945   1.804       .  S
C1354      C1355   1.402       .  A
C1355      C1356   1.401       .  A
C1355      H1362   1.084       .  S
C1356      S1358   1.803       .  S
S1357      C1941   1.804   1_545  S
S1357      H1360   1.405       .  S
S1358      H1359   1.403       .  S
H1361      C1940   1.084   1_545  S
C1363      C1364   1.404       .  A
C1363      C1368   1.411       .  A
C1364      C1365   1.403       .  A
C1364      H1373   1.084       .  S
C1365      C1366   1.414       .  A
C1365      S1369   1.804       .  S
C1366      C1367   1.402       .  A
C1367      C1368   1.395       .  A
C1367      H1962   1.084       .  S
C1368      S1958   1.804       .  S
S1369      H1372   1.405       .  S
S1370      C1956   1.804   1_545  S
S1370      H1371   1.406       .  S
H1374      C1955   1.084   1_545  S
C1375      C1376   1.403       .  A
C1376      C1377   1.393       .  A
C1376      H1385   1.084       .  S
C1377      C1378   1.412       .  A
C1377      S1381   1.806       .  S
C1379      C1380   1.405       .  A
C1379      H1386   1.084       .  S
C1380      S1382   1.803       .  S
S1381      H1384   1.406       .  S
S1382      H1383   1.405       .  S
C1387      C1388   1.403       .  A
C1388      C1389   1.392       .  A
C1388      H1397   1.085       .  S
C1389      C1390   1.413       .  A
C1389      S1393   1.806       .  S
C1391      C1392   1.405       .  A
C1391      H1398   1.084       .  S
C1392      S1394   1.803       .  S
S1393      H1396   1.406       .  S
S1394      H1395   1.405       .  S
C1399      C1400   1.402       .  A
C1400      C1401   1.392       .  A
C1400      H1409   1.084       .  S
C1401      S1405   1.803       .  S
C1402      C1403   1.406       .  A
C1403      C1404   1.405       .  A
C1403      H1410   1.084       .  S
C1404      S1406   1.803       .  S
S1405      H1408   1.406       .  S
S1406      H1407   1.405       .  S
C1411      C1412   1.404       .  A
C1412      C1413   1.404       .  A
C1412      H1421   1.084       .  S
C1413      C1414   1.414       .  A
C1413      S1417   1.804       .  S
C1415      C1416   1.394       .  A
C1415      H1422   1.085       .  S
C1416      S1418   1.803       .  S
S1417      H1420   1.404       .  S
S1418      H1419   1.406       .  S
C1423      C1424   1.402   1_556  A
C1423      C1722   1.411       .  A
C1424      C1425   1.400       .  A
C1424      H1433   1.084       .  S
C1425      C1426   1.413       .  A
C1425      S1429   1.803       .  S
C1426      C1721   1.402   1_554  A
C1427      C1720   1.402       .  A
C1427      C1428   1.398       .  A
C1427      H1434   1.084       .  S
C1428      C1717   1.411       .  A
C1428      S1430   1.804       .  S
S1429      H1432   1.403       .  S
S1430      H1431   1.405       .  S
C1435      C1436   1.402   1_556  A
C1435      C1734   1.411       .  A
C1436      C1437   1.401       .  A
C1436      H1445   1.084       .  S
C1437      C1438   1.413       .  A
C1437      S1441   1.803       .  S
C1438      C1733   1.402   1_554  A
C1439      C1732   1.402       .  A
C1439      C1440   1.398       .  A
C1439      H1446   1.084       .  S
C1440      C1729   1.411       .  A
C1440      S1442   1.804       .  S
S1441      H1444   1.403       .  S
S1442      H1443   1.405       .  S
C1447      C1448   1.402   1_556  A
C1447      C1746   1.411       .  A
C1448      C1449   1.401       .  A
C1448      H1457   1.084       .  S
C1449      C1450   1.413       .  A
C1449      S1453   1.803       .  S
C1450      C1745   1.402   1_554  A
C1451      C1744   1.402       .  A
C1451      C1452   1.397       .  A
C1451      H1458   1.084       .  S
C1452      C1741   1.411       .  A
C1452      S1454   1.804       .  S
S1453      H1456   1.402       .  S
S1454      H1455   1.405       .  S
C1459      C1460   1.402   1_556  A
C1459      C1758   1.411       .  A
C1459      C1473   1.473   1_556  S
C1460      C1461   1.400       .  A
C1460      H1469   1.084       .  S
C1461      C1462   1.412       .  A
C1461      S1465   1.803       .  S
C1462      C1757   1.402   1_554  A
C1463      C1756   1.402       .  A
C1463      C1464   1.398       .  A
C1463      H1470   1.084       .  S
C1464      C1753   1.411       .  A
C1464      S1466   1.804       .  S
S1465      H1468   1.403       .  S
S1466      H1467   1.405       .  S
C1471      C1472   1.410       .  A
C1472      C1473   1.401       .  A
C1472      H1477   1.083       .  S
C1474      C1475   1.398       .  A
C1474      H1478   1.084       .  S
C1475      C1476   1.402       .  A
C1475      C1744   1.475       .  S
C1476      H1479   1.083       .  S
C1480      C1481   1.410       .  A
C1480      C1485   1.411       .  A
C1480      C1619   1.483       .  S
C1481      C1482   1.402       .  A
C1481      H1486   1.083       .  S
C1482      C1483   1.397       .  A
C1482      C1741   1.474       .  S
C1483      C1484   1.397       .  A
C1483      H1487   1.085       .  S
C1484      C1485   1.402       .  A
C1484      C1732   1.475       .  S
C1485      H1488   1.083       .  S
C1489      C1494   1.411       .  A
C1489      C1606   1.482       .  S
C1490      H1495   1.083       .  S
C1491      C1492   1.397       .  A
C1491      C1720   1.474       .  S
C1492      C1493   1.397       .  A
C1492      H1496   1.084       .  S
C1493      C1494   1.402       .  A
C1493      C1729   1.474       .  S
C1494      H1497   1.083       .  S
C1498      C1499   1.410       .  A
C1498      C1503   1.410       .  A
C1498      C1620   1.481       .  S
C1499      C1500   1.401       .  A
C1499      H1504   1.083       .  S
C1500      C1501   1.397       .  A
C1500      C1756   1.473       .  S
C1501      C1502   1.397       .  A
C1501      H1505   1.085       .  S
C1502      C1503   1.401       .  A
C1502      C1717   1.473       .  S
C1503      H1506   1.083       .  S
C1507      C1508   1.411       .  A
C1507      C1512   1.411       .  A
C1508      C1509   1.400       .  A
C1508      H1513   1.083       .  S
C1509      C1510   1.398       .  A
C1509      C1705   1.477       .  S
C1510      C1511   1.400       .  A
C1510      H1514   1.084       .  S
C1511      C1512   1.402       .  A
C1511      C1696   1.481       .  S
C1512      H1515   1.083       .  S
C1516      C1517   1.412       .  A
C1516      C1521   1.412       .  A
C1516      C1591   1.480       .  S
C1517      C1518   1.401       .  A
C1517      H1522   1.083       .  S
C1518      C1519   1.398       .  A
C1518      C1693   1.479   1_455  S
C1519      C1520   1.398       .  A
C1519      H1523   1.084       .  S
C1520      C1521   1.401       .  A
C1520      C1684   1.480   1_455  S
C1521      H1524   1.083   1_455  S
C1525      C1526   1.412       .  A
C1525      C1530   1.412       .  A
C1526      C1527   1.402       .  A
C1526      H1531   1.083       .  S
C1527      C1528   1.398       .  A
C1528      C1529   1.397       .  A
C1528      H1532   1.084       .  S
C1529      C1530   1.402       .  A
C1530      H1533   1.083       .  S
C1534      C1535   1.411       .  A
C1534      C1539   1.412       .  A
C1534      C1592   1.481       .  S
C1535      C1536   1.400       .  A
C1535      H1540   1.083       .  S
C1536      C1537   1.397       .  A
C1537      C1538   1.398       .  A
C1537      H1541   1.084       .  S
C1538      C1539   1.402       .  A
C1538      C1672   1.479   1_455  S
C1539      H1542   1.083   1_455  S
C1543      C1544   1.411       .  A
C1543      C1548   1.411       .  A
C1543      C1604   1.482       .  S
C1544      C1545   1.401       .  A
C1544      H1549   1.083       .  S
C1545      C1546   1.398       .  A
C1545      C1657   1.475       .  S
C1546      C1547   1.396       .  A
C1546      H1550   1.084       .  S
C1547      C1548   1.401       .  A
C1547      C1648   1.474       .  S
C1548      H1551   1.083       .  S
C1552      C1553   1.410       .  A
C1552      C1557   1.410       .  A
C1552      C1590   1.483       .  S
C1553      C1554   1.402       .  A
C1553      H1558   1.083       .  S
C1554      C1555   1.397       .  A
C1554      C1645   1.475       .  S
C1555      C1556   1.398       .  A
C1555      H1559   1.085       .  S
C1556      C1557   1.402       .  A
C1556      C1636   1.475       .  S
C1557      H1560   1.083       .  S
C1561      C1562   1.410       .  A
C1561      C1566   1.410       .  A
C1561      C1603   1.481       .  S
C1562      C1563   1.402       .  A
C1562      H1567   1.083       .  S
C1563      C1564   1.397       .  A
C1563      C1633   1.474       .  S
C1564      C1565   1.397       .  A
C1564      H1568   1.084       .  S
C1565      C1566   1.401       .  A
C1565      C1624   1.473       .  S
C1566      H1569   1.083       .  S
C1570      C1571   1.411       .  A
C1570      C1575   1.410       .  A
C1570      C1589   1.480       .  S
C1571      C1572   1.402       .  A
C1571      H1576   1.083       .  S
C1572      C1573   1.398       .  A
C1572      C1660   1.475       .  S
C1573      C1574   1.395       .  A
C1573      H1577   1.085       .  S
C1574      C1575   1.400       .  A
C1574      C1621   1.472       .  S
C1575      H1578   1.083       .  S
O1579      C1589   1.278       .  A
O1580      C1590   1.279       .  A
O1580     Cu1587   2.011   1_655  S
O1581      C1591   1.278       .  A
O1581     Cu1587   2.006       .  S
O1582      C1592   1.278       .  A
O1582     Cu2175   2.007   1_545  S
O1583      C1592   1.278       .  A
O1583     Cu2176   2.009   1_545  S
O1584      C1591   1.278       .  A
O1584     Cu1588   2.008       .  S
O1585      C1590   1.278       .  A
O1585     Cu1588   2.010   1_655  S
O1586      C1589   1.278       .  A
Cu1587     O2170   2.007       .  S
Cu1587    Cu1588   2.370       .  S
Cu1588     O2171   2.009       .  S
O1593      C1603   1.278       .  A
O1593     Cu1601   2.008       .  S
O1594      C1604   1.278       .  A
O1595      C1605   1.278       .  A
O1595     Cu1601   2.008       .  S
O1596      C1606   1.278       .  A
O1596     Cu2189   2.010   1_545  S
O1597      C1606   1.278       .  A
O1597     Cu2190   2.011   1_545  S
O1598      C1605   1.278       .  A
O1598     Cu1602   2.008       .  S
O1599      C1604   1.278       .  A
O1600      C1603   1.278       .  A
O1600     Cu1602   2.009       .  S
Cu1601     O2184   2.010       .  S
Cu1601    Cu1602   2.370       .  S
Cu1602     O2185   2.011       .  S
O1607      C1617   1.278       .  A
O1607     Cu1615   2.008       .  S
O1608      C1618   1.278       .  A
O1609      C1619   1.279       .  A
O1609     Cu1615   2.012   1_655  S
O1610      C1620   1.278       .  A
O1611      C1620   1.278       .  A
O1612      C1619   1.278       .  A
O1612     Cu1616   2.010   1_655  S
O1613      C1618   1.278       .  A
O1614      C1617   1.278       .  A
O1614     Cu1616   2.008       .  S
Cu1615    Cu1616   2.370       .  S
C1621      C1622   1.401       .  A
C1621      C1626   1.411       .  A
C1622      C1623   1.400       .  A
C1622      H1631   1.084       .  S
C1623      C1624   1.412       .  A
C1623      S1627   1.803       .  S
C1624      C1625   1.402       .  A
C1625      C1626   1.398       .  A
C1625      H2220   1.084       .  S
C1626      S2216   1.804       .  S
S1627      H1630   1.403       .  S
S1628      C2214   1.804   1_545  S
S1628      H1629   1.405       .  S
H1632      C2213   1.084   1_545  S
C1633      C1634   1.402       .  A
C1633      C1638   1.411       .  A
C1634      C1635   1.401       .  A
C1634      H1643   1.084       .  S
C1635      C1636   1.413       .  A
C1635      S1639   1.803       .  S
C1636      C1637   1.402       .  A
C1637      C1638   1.398       .  A
C1637      H2232   1.084       .  S
C1638      S2228   1.804       .  S
S1639      H1642   1.403       .  S
S1640      C2226   1.804   1_545  S
S1640      H1641   1.406       .  S
H1644      C2225   1.084   1_545  S
C1645      C1646   1.402       .  A
C1645      C1650   1.412       .  A
C1646      C1647   1.398       .  A
C1646      H2243   1.084       .  S
C1647      C1648   1.412       .  A
C1647      S2239   1.804       .  S
C1648      C1649   1.402       .  A
C1649      C1650   1.401       .  A
C1649      H1656   1.084       .  S
C1650      S1652   1.803       .  S
S1651      C2235   1.804   1_545  S
S1651      H1654   1.405       .  S
S1652      H1653   1.403       .  S
H1655      C2234   1.084   1_545  S
C1657      C1658   1.404       .  A
C1657      C1662   1.411       .  A
C1658      C1659   1.403       .  A
C1658      H1667   1.084       .  S
C1659      C1660   1.414       .  A
C1659      S1663   1.804       .  S
C1660      C1661   1.402       .  A
C1661      C1662   1.395       .  A
C1661      H2256   1.084       .  S
C1662      S2252   1.804       .  S
S1663      H1666   1.405       .  S
S1664      C2250   1.804   1_545  S
S1664      H1665   1.406       .  S
H1668      C2249   1.084   1_545  S
C1669      C1670   1.403       .  A
C1670      C1671   1.393       .  A
C1670      H1679   1.084       .  S
C1671      C1672   1.412       .  A
C1671      S1675   1.806       .  S
C1673      C1674   1.405       .  A
C1673      H1680   1.084       .  S
C1674      S1676   1.803       .  S
S1675      H1678   1.406       .  S
S1676      H1677   1.405       .  S
C1681      C1682   1.403       .  A
C1682      C1683   1.392       .  A
C1682      H1691   1.085       .  S
C1683      C1684   1.413       .  A
C1683      S1687   1.806       .  S
C1685      C1686   1.405       .  A
C1685      H1692   1.084       .  S
C1686      S1688   1.803       .  S
S1687      H1690   1.406       .  S
S1688      H1689   1.405       .  S
C1693      C1694   1.402       .  A
C1694      C1695   1.392       .  A
C1694      H1703   1.084       .  S
C1695      S1699   1.803       .  S
C1696      C1697   1.406       .  A
C1697      C1698   1.405       .  A
C1697      H1704   1.084       .  S
C1698      S1700   1.803       .  S
S1699      H1702   1.406       .  S
S1700      H1701   1.405       .  S
C1705      C1706   1.404       .  A
C1706      C1707   1.404       .  A
C1706      H1715   1.084       .  S
C1707      C1708   1.414       .  A
C1707      S1711   1.804       .  S
C1709      C1710   1.394       .  A
C1709      H1716   1.085       .  S
C1710      S1712   1.803       .  S
S1711      H1714   1.404       .  S
S1712      H1713   1.406       .  S
C1717      C1718   1.402       .  A
C1718      C1719   1.400       .  A
C1718      H1727   1.084       .  S
C1719      C1720   1.413       .  A
C1719      S1723   1.803       .  S
C1721      C1722   1.398       .  A
C1721      H1728   1.084       .  S
C1722      S1724   1.804       .  S
S1723      H1726   1.403       .  S
S1724      H1725   1.405       .  S
C1729      C1730   1.402       .  A
C1730      C1731   1.401       .  A
C1730      H1739   1.084       .  S
C1731      C1732   1.413       .  A
C1731      S1735   1.803       .  S
C1733      C1734   1.398       .  A
C1733      H1740   1.084       .  S
C1734      S1736   1.804       .  S
S1735      H1738   1.403       .  S
S1736      H1737   1.405       .  S
C1741      C1742   1.402       .  A
C1742      C1743   1.401       .  A
C1742      H1751   1.084       .  S
C1743      C1744   1.413       .  A
C1743      S1747   1.803       .  S
C1745      C1746   1.397       .  A
C1745      H1752   1.084       .  S
C1746      S1748   1.804       .  S
S1747      H1750   1.402       .  S
S1748      H1749   1.405       .  S
C1753      C1754   1.402       .  A
C1754      C1755   1.400       .  A
C1754      H1763   1.084       .  S
C1755      C1756   1.412       .  A
C1755      S1759   1.803       .  S
C1757      C1758   1.398       .  A
C1757      H1764   1.084       .  S
C1758      S1760   1.804       .  S
S1759      H1762   1.403       .  S
S1760      H1761   1.405       .  S
C1765      C1766   1.410       .  A
C1765      C2064   1.410       .  A
C1765      C2193   1.481       .  S
C1766      C1767   1.401       .  A
C1766      H1771   1.083       .  S
C1767      C2062   1.397       .  A
C1767      C2341   1.473       .  S
C1768      C2061   1.397       .  A
C1768      C1769   1.398       .  A
C1768      H1772   1.084       .  S
C1769      C1770   1.402       .  A
C1769      C2038   1.475       .  S
C1770      C2059   1.410       .  A
C1770      H1773   1.083       .  S
C1774      C1775   1.410       .  A
C1774      C1779   1.411       .  A
C1774      C1913   1.483       .  S
C1775      C1776   1.402       .  A
C1775      H1780   1.083       .  S
C1776      C1777   1.397       .  A
C1776      C2035   1.474   1_554  S
C1777      C1778   1.397       .  A
C1777      H1781   1.085       .  S
C1778      C1779   1.402       .  A
C1778      C2026   1.475       .  S
C1779      H1782   1.083       .  S
C1783      C2078   1.410       .  A
C1783      C1788   1.411       .  A
C1783      C1900   1.482       .  S
C1784      C2077   1.410       .  A
C1784      C2079   1.402       .  A
C1784      H1789   1.083       .  S
C1785      C2078   1.402       .  A
C1785      C1786   1.397       .  A
C1785      C2014   1.474       .  S
C1786      C1787   1.397       .  A
C1786      H1790   1.084       .  S
C1787      C1788   1.402       .  A
C1787      C2023   1.474   1_554  S
C1788      H1791   1.083       .  S
C1792      C1793   1.410       .  A
C1792      C1797   1.410       .  A
C1792      C1914   1.481       .  S
C1793      C1794   1.401       .  A
C1793      H1798   1.083       .  S
C1794      C1795   1.397       .  A
C1794      C2050   1.473       .  S
C1795      C1796   1.397       .  A
C1795      H1799   1.085       .  S
C1796      C1797   1.401       .  A
C1796      C2011   1.473   1_554  S
C1797      H1800   1.083       .  S
C1801      C1802   1.411       .  A
C1801      C1806   1.411       .  A
C1802      C1803   1.400       .  A
C1802      H1807   1.083       .  S
C1803      C1804   1.398       .  A
C1803      C1999   1.477       .  S
C1804      C1805   1.400       .  A
C1804      H1808   1.084       .  S
C1805      C1806   1.402       .  A
C1805      C1990   1.481       .  S
C1806      H1809   1.083       .  S
C1810      C1811   1.412       .  A
C1810      C1815   1.412       .  A
C1810      C1885   1.480       .  S
C1811      C1812   1.401       .  A
C1811      H1816   1.083       .  S
C1812      C1813   1.398       .  A
C1812      C1987   1.479   1_455  S
C1813      C1814   1.398       .  A
C1813      H1817   1.084       .  S
C1814      C1815   1.401       .  A
C1814      C1978   1.480   1_455  S
C1815      H1818   1.083   1_455  S
C1819      C1820   1.412       .  A
C1819      C1824   1.412       .  A
C1820      C1821   1.402       .  A
C1820      H1825   1.083       .  S
C1821      C1822   1.398       .  A
C1822      C1823   1.397       .  A
C1822      H1826   1.084       .  S
C1823      C1824   1.402       .  A
C1824      H1827   1.083       .  S
C1828      C1829   1.411       .  A
C1828      C1833   1.412       .  A
C1828      C1886   1.481       .  S
C1829      C1830   1.400       .  A
C1829      H1834   1.083       .  S
C1830      C1831   1.397       .  A
C1831      C1832   1.398       .  A
C1831      H1835   1.084       .  S
C1832      C1833   1.402       .  A
C1832      C1966   1.479   1_455  S
C1833      H1836   1.083   1_455  S
C1837      C1838   1.411       .  A
C1837      C1842   1.411       .  A
C1837      C1898   1.482       .  S
C1838      C1839   1.401       .  A
C1838      H1843   1.083       .  S
C1839      C1840   1.398       .  A
C1839      C1951   1.475       .  S
C1840      C1841   1.396       .  A
C1840      H1844   1.084       .  S
C1841      C1842   1.401       .  A
C1841      C1942   1.474       .  S
C1842      H1845   1.083       .  S
C1846      C1847   1.410       .  A
C1846      C1851   1.410       .  A
C1846      C1884   1.483       .  S
C1847      C1848   1.402       .  A
C1847      H1852   1.083       .  S
C1848      C1849   1.397       .  A
C1848      C1939   1.475       .  S
C1849      C1850   1.398       .  A
C1849      H1853   1.085       .  S
C1850      C1851   1.402       .  A
C1850      C1930   1.475       .  S
C1851      H1854   1.083       .  S
C1855      C1856   1.410       .  A
C1855      C1860   1.410       .  A
C1855      C1897   1.481       .  S
C1856      C1857   1.402       .  A
C1856      H1861   1.083       .  S
C1857      C1858   1.397       .  A
C1857      C1927   1.474       .  S
C1858      C1859   1.397       .  A
C1858      H1862   1.084       .  S
C1859      C1860   1.401       .  A
C1859      C1918   1.473       .  S
C1860      H1863   1.083       .  S
C1864      C1865   1.411       .  A
C1864      C1869   1.410       .  A
C1864      C1883   1.480       .  S
C1865      C1866   1.402       .  A
C1865      H1870   1.083       .  S
C1866      C1867   1.398       .  A
C1866      C1954   1.475       .  S
C1867      C1868   1.395       .  A
C1867      H1871   1.085       .  S
C1868      C1869   1.400       .  A
C1868      C1915   1.472       .  S
C1869      H1872   1.083       .  S
O1873      C1883   1.278       .  A
O1874      C1884   1.279       .  A
O1874     Cu1881   2.011   1_655  S
O1875      C1885   1.278       .  A
O1875     Cu1881   2.006       .  S
O1876      C1886   1.278       .  A
O1877      C1886   1.278       .  A
O1878      C1885   1.278       .  A
O1878     Cu1882   2.008       .  S
O1879      C1884   1.278       .  A
O1879     Cu1882   2.010   1_655  S
O1880      C1883   1.278       .  A
Cu1881    Cu1882   2.370       .  S
O1887      C1897   1.278       .  A
O1887     Cu1895   2.008       .  S
O1888      C1898   1.278       .  A
O1888     Cu2189   2.009       .  S
O1889      C1899   1.278       .  A
O1889     Cu1895   2.008       .  S
O1890      C1900   1.278       .  A
O1891      C1900   1.278       .  A
O1892      C1899   1.278       .  A
O1892     Cu1896   2.008       .  S
O1893      C1898   1.278       .  A
O1893     Cu2190   2.009       .  S
O1894      C1897   1.278       .  A
O1894     Cu1896   2.009       .  S
Cu1895     O2182   2.009   1_554  S
Cu1895    Cu1896   2.370       .  S
Cu1896     O2187   2.009   1_554  S
C1899      C2059   1.481       .  S
O1901      C1911   1.278       .  A
O1901     Cu1909   2.008       .  S
O1902      C1912   1.278       .  A
O1902     Cu2203   2.009       .  S
O1903      C1913   1.279       .  A
O1903     Cu1909   2.012   1_655  S
O1904      C1914   1.278       .  A
O1905      C1914   1.278       .  A
O1906      C1913   1.278       .  A
O1906     Cu1910   2.010   1_655  S
O1907      C1912   1.278       .  A
O1907     Cu2204   2.008       .  S
O1908      C1911   1.278       .  A
O1908     Cu1910   2.008       .  S
Cu1909     O2196   2.009   1_554  S
Cu1909    Cu1910   2.370       .  S
Cu1910     O2201   2.008   1_554  S
C1915      C1916   1.401       .  A
C1915      C1920   1.411       .  A
C1916      C1917   1.400       .  A
C1916      H1925   1.084       .  S
C1917      C1918   1.412       .  A
C1917      S1921   1.803       .  S
C1918      C1919   1.402       .  A
C1919      C1920   1.398       .  A
S1921      H1924   1.403       .  S
S1922      H1923   1.405       .  S
C1927      C1928   1.402       .  A
C1927      C1932   1.411       .  A
C1928      C1929   1.401       .  A
C1928      H1937   1.084       .  S
C1929      C1930   1.413       .  A
C1929      S1933   1.803       .  S
C1930      C1931   1.402       .  A
C1931      C1932   1.398       .  A
S1933      H1936   1.403       .  S
S1934      H1935   1.406       .  S
C1939      C1940   1.402       .  A
C1939      C1944   1.412       .  A
C1940      C1941   1.398       .  A
C1941      C1942   1.412       .  A
C1942      C1943   1.402       .  A
C1943      C1944   1.401       .  A
C1943      H1950   1.084       .  S
C1944      S1946   1.803       .  S
S1945      H1948   1.405       .  S
S1946      H1947   1.403       .  S
C1951      C1952   1.404       .  A
C1951      C1956   1.411       .  A
C1952      C1953   1.403       .  A
C1952      H1961   1.084       .  S
C1953      C1954   1.414       .  A
C1953      S1957   1.804       .  S
C1954      C1955   1.402       .  A
C1955      C1956   1.395       .  A
S1957      H1960   1.405       .  S
S1958      H1959   1.406       .  S
C1963      C1964   1.403       .  A
C1964      C1965   1.393       .  A
C1964      H1973   1.084       .  S
C1965      C1966   1.412       .  A
C1965      S1969   1.806       .  S
C1967      C1968   1.405       .  A
C1967      H1974   1.084       .  S
C1968      S1970   1.803       .  S
S1969      H1972   1.406       .  S
S1970      H1971   1.405       .  S
C1975      C1976   1.403       .  A
C1976      C1977   1.392       .  A
C1976      H1985   1.085       .  S
C1977      C1978   1.413       .  A
C1977      S1981   1.806       .  S
C1979      C1980   1.405       .  A
C1979      H1986   1.084       .  S
C1980      S1982   1.803       .  S
S1981      H1984   1.406       .  S
S1982      H1983   1.405       .  S
C1987      C1988   1.402       .  A
C1988      C1989   1.392       .  A
C1988      H1997   1.084       .  S
C1989      S1993   1.803       .  S
C1990      C1991   1.406       .  A
C1991      C1992   1.405       .  A
C1991      H1998   1.084       .  S
C1992      S1994   1.803       .  S
S1993      H1996   1.406       .  S
S1994      H1995   1.405       .  S
C1999      C2000   1.404       .  A
C2000      C2001   1.404       .  A
C2000      H2009   1.084       .  S
C2001      C2002   1.414       .  A
C2001      S2005   1.804       .  S
C2003      C2004   1.394       .  A
C2003      H2010   1.085       .  S
C2004      S2006   1.803       .  S
S2005      H2008   1.404       .  S
S2006      H2007   1.406       .  S
C2011      C2012   1.402   1_556  A
C2011      C2310   1.411       .  A
C2012      C2013   1.400       .  A
C2012      H2021   1.084       .  S
C2013      C2014   1.413       .  A
C2013      S2017   1.803       .  S
C2014      C2309   1.402   1_554  A
C2015      C2308   1.402       .  A
C2015      C2016   1.398       .  A
C2015      H2022   1.084       .  S
C2016      C2305   1.411       .  A
C2016      S2018   1.804       .  S
S2017      H2020   1.403       .  S
S2018      H2019   1.405       .  S
C2023      C2024   1.402   1_556  A
C2023      C2322   1.411       .  A
C2024      C2025   1.401       .  A
C2024      H2033   1.084       .  S
C2025      C2026   1.413       .  A
C2025      S2029   1.803       .  S
C2026      C2321   1.402   1_554  A
C2027      C2320   1.402       .  A
C2027      C2028   1.398       .  A
C2027      H2034   1.084       .  S
C2028      C2317   1.411       .  A
C2028      S2030   1.804       .  S
S2029      H2032   1.403       .  S
S2030      H2031   1.405       .  S
C2035      C2036   1.402   1_556  A
C2035      C2334   1.411       .  A
C2036      C2037   1.401       .  A
C2036      H2045   1.084       .  S
C2037      C2038   1.413       .  A
C2037      S2041   1.803       .  S
C2038      C2333   1.402   1_554  A
C2039      C2332   1.402       .  A
C2039      C2040   1.397       .  A
C2039      H2046   1.084       .  S
C2040      C2329   1.411       .  A
C2040      S2042   1.804       .  S
S2041      H2044   1.402       .  S
S2042      H2043   1.405       .  S
C2047      C2048   1.402   1_556  A
C2047      C2346   1.411       .  A
C2047      C2061   1.473   1_556  S
C2048      C2049   1.400       .  A
C2048      H2057   1.084       .  S
C2049      C2050   1.412       .  A
C2049      S2053   1.803       .  S
C2050      C2345   1.402   1_554  A
C2051      C2344   1.402       .  A
C2051      C2052   1.398       .  A
C2051      H2058   1.084       .  S
C2052      C2341   1.411       .  A
C2052      S2054   1.804       .  S
S2053      H2056   1.403       .  S
S2054      H2055   1.405       .  S
C2059      C2060   1.410       .  A
C2060      C2061   1.401       .  A
C2060      H2065   1.083       .  S
C2062      C2063   1.398       .  A
C2062      H2066   1.084       .  S
C2063      C2064   1.402       .  A
C2063      C2332   1.475       .  S
C2064      H2067   1.083       .  S
C2068      C2069   1.410       .  A
C2068      C2073   1.411       .  A
C2068      C2207   1.483       .  S
C2069      C2070   1.402       .  A
C2069      H2074   1.083       .  S
C2070      C2071   1.397       .  A
C2070      C2329   1.474       .  S
C2071      C2072   1.397       .  A
C2071      H2075   1.085       .  S
C2072      C2073   1.402       .  A
C2072      C2320   1.475       .  S
C2073      H2076   1.083       .  S
C2077      C2082   1.411       .  A
C2077      C2194   1.482       .  S
C2078      H2083   1.083       .  S
C2079      C2080   1.397       .  A
C2079      C2308   1.474       .  S
C2080      C2081   1.397       .  A
C2080      H2084   1.084       .  S
C2081      C2082   1.402       .  A
C2081      C2317   1.474       .  S
C2082      H2085   1.083       .  S
C2086      C2087   1.410       .  A
C2086      C2091   1.410       .  A
C2086      C2208   1.481       .  S
C2087      C2088   1.401       .  A
C2087      H2092   1.083       .  S
C2088      C2089   1.397       .  A
C2088      C2344   1.473       .  S
C2089      C2090   1.397       .  A
C2089      H2093   1.085       .  S
C2090      C2091   1.401       .  A
C2090      C2305   1.473       .  S
C2091      H2094   1.083       .  S
C2095      C2096   1.411       .  A
C2095      C2100   1.411       .  A
C2096      C2097   1.400       .  A
C2096      H2101   1.083       .  S
C2097      C2098   1.398       .  A
C2097      C2293   1.477       .  S
C2098      C2099   1.400       .  A
C2098      H2102   1.084       .  S
C2099      C2100   1.402       .  A
C2099      C2284   1.481       .  S
C2100      H2103   1.083       .  S
C2104      C2105   1.412       .  A
C2104      C2109   1.412       .  A
C2104      C2179   1.480       .  S
C2105      C2106   1.401       .  A
C2105      H2110   1.083       .  S
C2106      C2107   1.398       .  A
C2106      C2281   1.479   1_455  S
C2107      C2108   1.398       .  A
C2107      H2111   1.084       .  S
C2108      C2109   1.401       .  A
C2108      C2272   1.480   1_455  S
C2109      H2112   1.083   1_455  S
C2113      C2114   1.412       .  A
C2113      C2118   1.412       .  A
C2114      C2115   1.402       .  A
C2114      H2119   1.083       .  S
C2115      C2116   1.398       .  A
C2116      C2117   1.397       .  A
C2116      H2120   1.084       .  S
C2117      C2118   1.402       .  A
C2118      H2121   1.083       .  S
C2122      C2123   1.411       .  A
C2122      C2127   1.412       .  A
C2122      C2180   1.481       .  S
C2123      C2124   1.400       .  A
C2123      H2128   1.083       .  S
C2124      C2125   1.397       .  A
C2125      C2126   1.398       .  A
C2125      H2129   1.084       .  S
C2126      C2127   1.402       .  A
C2126      C2260   1.479   1_455  S
C2127      H2130   1.083   1_455  S
C2131      C2132   1.411       .  A
C2131      C2136   1.411       .  A
C2131      C2192   1.482       .  S
C2132      C2133   1.401       .  A
C2132      H2137   1.083       .  S
C2133      C2134   1.398       .  A
C2133      C2245   1.475       .  S
C2134      C2135   1.396       .  A
C2134      H2138   1.084       .  S
C2135      C2136   1.401       .  A
C2135      C2236   1.474       .  S
C2136      H2139   1.083       .  S
C2140      C2141   1.410       .  A
C2140      C2145   1.410       .  A
C2140      C2178   1.483       .  S
C2141      C2142   1.402       .  A
C2141      H2146   1.083       .  S
C2142      C2143   1.397       .  A
C2142      C2233   1.475       .  S
C2143      C2144   1.398       .  A
C2143      H2147   1.085       .  S
C2144      C2145   1.402       .  A
C2144      C2224   1.475       .  S
C2145      H2148   1.083       .  S
C2149      C2150   1.410       .  A
C2149      C2154   1.410       .  A
C2149      C2191   1.481       .  S
C2150      C2151   1.402       .  A
C2150      H2155   1.083       .  S
C2151      C2152   1.397       .  A
C2151      C2221   1.474       .  S
C2152      C2153   1.397       .  A
C2152      H2156   1.084       .  S
C2153      C2154   1.401       .  A
C2153      C2212   1.473       .  S
C2154      H2157   1.083       .  S
C2158      C2159   1.411       .  A
C2158      C2163   1.410       .  A
C2158      C2177   1.480       .  S
C2159      C2160   1.402       .  A
C2159      H2164   1.083       .  S
C2160      C2161   1.398       .  A
C2160      C2248   1.475       .  S
C2161      C2162   1.395       .  A
C2161      H2165   1.085       .  S
C2162      C2163   1.400       .  A
C2162      C2209   1.472       .  S
C2163      H2166   1.083       .  S
O2167      C2177   1.278       .  A
O2168      C2178   1.279       .  A
O2168     Cu2175   2.011   1_655  S
O2169      C2179   1.278       .  A
O2169     Cu2175   2.006       .  S
O2170      C2180   1.278       .  A
O2171      C2180   1.278       .  A
O2172      C2179   1.278       .  A
O2172     Cu2176   2.008       .  S
O2173      C2178   1.278       .  A
O2173     Cu2176   2.010   1_655  S
O2174      C2177   1.278       .  A
Cu2175    Cu2176   2.370       .  S
O2181      C2191   1.278       .  A
O2181     Cu2189   2.008       .  S
O2182      C2192   1.278       .  A
O2183      C2193   1.278       .  A
O2183     Cu2189   2.008       .  S
O2184      C2194   1.278       .  A
O2185      C2194   1.278       .  A
O2186      C2193   1.278       .  A
O2186     Cu2190   2.008       .  S
O2187      C2192   1.278       .  A
O2188      C2191   1.278       .  A
O2188     Cu2190   2.009       .  S
Cu2189    Cu2190   2.370       .  S
O2195      C2205   1.278       .  A
O2195     Cu2203   2.008       .  S
O2196      C2206   1.278       .  A
O2197      C2207   1.279       .  A
O2197     Cu2203   2.012   1_655  S
O2198      C2208   1.278       .  A
O2199      C2208   1.278       .  A
O2200      C2207   1.278       .  A
O2200     Cu2204   2.010   1_655  S
O2201      C2206   1.278       .  A
O2202      C2205   1.278       .  A
O2202     Cu2204   2.008       .  S
Cu2203    Cu2204   2.370       .  S
C2209      C2210   1.401       .  A
C2209      C2214   1.411       .  A
C2210      C2211   1.400       .  A
C2210      H2219   1.084       .  S
C2211      C2212   1.412       .  A
C2211      S2215   1.803       .  S
C2212      C2213   1.402       .  A
C2213      C2214   1.398       .  A
S2215      H2218   1.403       .  S
S2216      H2217   1.405       .  S
C2221      C2222   1.402       .  A
C2221      C2226   1.411       .  A
C2222      C2223   1.401       .  A
C2222      H2231   1.084       .  S
C2223      C2224   1.413       .  A
C2223      S2227   1.803       .  S
C2224      C2225   1.402       .  A
C2225      C2226   1.398       .  A
S2227      H2230   1.403       .  S
S2228      H2229   1.406       .  S
C2233      C2234   1.402       .  A
C2233      C2238   1.412       .  A
C2234      C2235   1.398       .  A
C2235      C2236   1.412       .  A
C2236      C2237   1.402       .  A
C2237      C2238   1.401       .  A
C2237      H2244   1.084       .  S
C2238      S2240   1.803       .  S
S2239      H2242   1.405       .  S
S2240      H2241   1.403       .  S
C2245      C2246   1.404       .  A
C2245      C2250   1.411       .  A
C2246      C2247   1.403       .  A
C2246      H2255   1.084       .  S
C2247      C2248   1.414       .  A
C2247      S2251   1.804       .  S
C2248      C2249   1.402       .  A
C2249      C2250   1.395       .  A
S2251      H2254   1.405       .  S
S2252      H2253   1.406       .  S
C2257      C2258   1.403       .  A
C2258      C2259   1.393       .  A
C2258      H2267   1.084       .  S
C2259      C2260   1.412       .  A
C2259      S2263   1.806       .  S
C2261      C2262   1.405       .  A
C2261      H2268   1.084       .  S
C2262      S2264   1.803       .  S
S2263      H2266   1.406       .  S
S2264      H2265   1.405       .  S
C2269      C2270   1.403       .  A
C2270      C2271   1.392       .  A
C2270      H2279   1.085       .  S
C2271      C2272   1.413       .  A
C2271      S2275   1.806       .  S
C2273      C2274   1.405       .  A
C2273      H2280   1.084       .  S
C2274      S2276   1.803       .  S
S2275      H2278   1.406       .  S
S2276      H2277   1.405       .  S
C2281      C2282   1.402       .  A
C2282      C2283   1.392       .  A
C2282      H2291   1.084       .  S
C2283      S2287   1.803       .  S
C2284      C2285   1.406       .  A
C2285      C2286   1.405       .  A
C2285      H2292   1.084       .  S
C2286      S2288   1.803       .  S
S2287      H2290   1.406       .  S
S2288      H2289   1.405       .  S
C2293      C2294   1.404       .  A
C2294      C2295   1.404       .  A
C2294      H2303   1.084       .  S
C2295      C2296   1.414       .  A
C2295      S2299   1.804       .  S
C2297      C2298   1.394       .  A
C2297      H2304   1.085       .  S
C2298      S2300   1.803       .  S
S2299      H2302   1.404       .  S
S2300      H2301   1.406       .  S
C2305      C2306   1.402       .  A
C2306      C2307   1.400       .  A
C2306      H2315   1.084       .  S
C2307      C2308   1.413       .  A
C2307      S2311   1.803       .  S
C2309      C2310   1.398       .  A
C2309      H2316   1.084       .  S
C2310      S2312   1.804       .  S
S2311      H2314   1.403       .  S
S2312      H2313   1.405       .  S
C2317      C2318   1.402       .  A
C2318      C2319   1.401       .  A
C2318      H2327   1.084       .  S
C2319      C2320   1.413       .  A
C2319      S2323   1.803       .  S
C2321      C2322   1.398       .  A
C2321      H2328   1.084       .  S
C2322      S2324   1.804       .  S
S2323      H2326   1.403       .  S
S2324      H2325   1.405       .  S
C2329      C2330   1.402       .  A
C2330      C2331   1.401       .  A
C2330      H2339   1.084       .  S
C2331      C2332   1.413       .  A
C2331      S2335   1.803       .  S
C2333      C2334   1.397       .  A
C2333      H2340   1.084       .  S
C2334      S2336   1.804       .  S
S2335      H2338   1.402       .  S
S2336      H2337   1.405       .  S
C2341      C2342   1.402       .  A
C2342      C2343   1.400       .  A
C2342      H2351   1.084       .  S
C2343      C2344   1.412       .  A
C2343      S2347   1.803       .  S
C2345      C2346   1.398       .  A
C2345      H2352   1.084       .  S
C2346      S2348   1.804       .  S
S2347      H2350   1.403       .  S
S2348      H2349   1.405       .  S
