geometry optimzed in LAMMPS
_audit_creation_date              2020-12-01 
_audit_creation_method            'lammps2cif' 
_symmetry_space_group_name_H-M    'P1' 
_symmetry_Int_Tables_number       1 
_symmetry_cell_setting            triclinic 
loop_ 
_symmetry_equiv_pos_as_xyz 
  x,y,z 
_cell_length_a                    27.68488822 
_cell_length_b                    29.972368554312183 
_cell_length_c                    23.117328946484736 
_cell_angle_alpha                 89.51542591562824 
_cell_angle_beta                  90.48034066202509 
_cell_angle_gamma                 90.33834200082661 
loop_ 
_atom_site_label 
_atom_site_type_symbol 
_atom_site_fract_x 
_atom_site_fract_y 
_atom_site_fract_z 
_atom_site_charge 
O1          O  0.28912298  0.30761802  0.46753136    -0.70700
O2          O  0.20581674  0.20234730  0.46170520    -0.70900
O3          O  0.19497960  0.29295781  0.46491113    -0.70700
O4          O  0.29899022  0.21701351  0.46002740    -0.70800
O5          O  0.30944621  0.20835651  0.04644785    -0.70700
O6          O  0.20566892  0.29682488  0.04400140    -0.70700
O7          O  0.21100977  0.20779120  0.04597398    -0.70700
O8          O  0.30482522  0.29818903  0.04749640    -0.70900
V9          V  0.24730733  0.25508306  0.46535302     1.35200
V10         V  0.25783870  0.25293302  0.04433415     1.35200
C11         C  0.31517067  0.32094288  0.00309982     0.78600
C12         C  0.20202798  0.18547012  0.00124037     0.78600
C13         C  0.17520271  0.30506632  0.51078189     0.78500
C14         C  0.31652578  0.19656485  0.50296889     0.78500
C15         C  0.21388231  0.06875805  0.05257430     0.87600
C16         C  0.16288804  0.05062735  0.04773372    -0.52600
C17         C  0.12887238  0.06668499  0.50841173     0.10500
C18         C  0.15668196  0.10300955  0.47232482     0.21500
C19         C  0.23578643  0.06074294  0.99314377    -0.53400
C20         C  0.20216633  0.07839378  0.45216928     0.10600
C21         C  0.20843300  0.11859843  0.05684122    -0.52900
C22         C  0.17744618  0.13702561  0.51725238     0.11200
H23         H  0.14977509  0.02432370  0.07638708     0.15700
H24         H  0.13496975  0.11830383  0.43684945     0.01400
H25         H  0.26200218  0.04140534  0.48819189     0.16000
H26         H  0.22833660  0.13684753  0.08993309     0.15800
C27         C  0.22835248  0.02438895  0.20852468     0.03400
C28         C  0.28164000  0.47588202  0.21256223     0.03400
C29         C  0.30436851  0.46140247  0.26358545    -0.17200
C30         C  0.29241962  0.47929924  0.31681738     0.03400
C31         C  0.20844203  0.01855725  0.31070896     0.03400
C32         C  0.20769047  0.04193548  0.25860266    -0.17200
H33         H  0.18999546  0.07416006  0.25708112     0.05400
H34         H  0.33044291  0.43452539  0.26229211     0.05400
C35         C  0.30422978  0.43505908  0.05612349     0.87600
C36         C  0.35285590  0.45717907  0.04713962    -0.52600
C37         C  0.36663606  0.44176574  0.51876173     0.10500
C38         C  0.33997655  0.40405267  0.48348606     0.21500
C39         C  0.27756523  0.44077888  0.99846384    -0.53400
C40         C  0.29225559  0.42627768  0.46496903     0.10600
C41         C  0.31500685  0.38593179  0.06136135    -0.52900
C42         C  0.32274830  0.36761580  0.52829869     0.11200
H43         H  0.36558743  0.48402458  0.07481323     0.15700
H44         H  0.36154697  0.39068681  0.44733445     0.01400
H45         H  0.23100050  0.45789309  0.50358866     0.16000
H46         H  0.29916612  0.36674511  0.09665062     0.15800
C47         C  0.05142421  0.32238371  0.44568281     0.87600
C48         C  0.10053945  0.30334280  0.45808332    -0.52600
C49         C  0.13896322  0.33083334  0.98599827     0.10500
C50         C  0.10185926  0.34596007  0.03321263     0.21500
C51         C  0.02473753  0.31782632  0.50404785    -0.53400
C52         C  0.07430655  0.30209375  0.04563598     0.10600
C53         C  0.06059946  0.37153059  0.43730851    -0.52900
C54         C  0.06328878  0.37594296  0.00100696     0.11200
H55         H  0.11488493  0.27505165  0.43531315     0.15700
H56         H  0.11866108  0.36181958  0.07171336     0.01400
H57         H  0.04042958  0.24937568  0.99781821     0.16000
H58         H  0.04507969  0.38847459  0.39974385     0.15800
C59         C  0.01984096  0.28088810  0.19378040     0.03400
C60         C  0.48876313  0.23157736  0.19054845     0.03400
C61         C  0.48344615  0.20838549  0.24258249    -0.17200
C62         C  0.48514634  0.23073732  0.29541468     0.03400
C63         C  0.01880118  0.26751834  0.29804517     0.03400
C64         C  0.03522784  0.29151435  0.24976460    -0.17200
H65         H  0.06237150  0.31739064  0.25561159     0.05400
H66         H  0.47751482  0.17257835  0.24176040     0.05400
C67         C  0.43237401  0.19099364  0.44283458     0.87600
C68         C  0.37940631  0.17915440  0.43881094    -0.52600
C69         C  0.37435276  0.17169839  0.99018984     0.10500
C70         C  0.40591678  0.14304584  0.03298734     0.21500
C71         C  0.43878282  0.21721042  0.49937229    -0.53400
C72         C  0.44407985  0.17645365  0.05376264     0.10600
C73         C  0.45587838  0.14635148  0.45403353    -0.52900
C74         C  0.43666680  0.11029385  0.99519437     0.11200
H75         H  0.35869374  0.19043373  0.40126607     0.15700
H76         H  0.38528128  0.12652970  0.06823288     0.01400
H77         H  0.49708767  0.22171897  0.01644205     0.16000
H78         H  0.48368910  0.13259086  0.42685198     0.15800
O79         O  0.05687362  0.04073946  0.45467405    -0.70700
O80         O  0.43519494  0.46954771  0.46151895    -0.70900
O81         O  0.45799561  0.05527415  0.45551249    -0.70700
O82         O  0.03665692  0.45594752  0.44800230    -0.70800
O83         O  0.03069375  0.43881678  0.05506237    -0.70700
O84         O  0.46373499  0.04584974  0.05221523    -0.70700
O85         O  0.44897391  0.47533815  0.04148394    -0.70700
O86         O  0.06575816  0.03576771  0.04497185    -0.70900
V87         V  0.99470562  0.50416464  0.45085159     1.35200
V88         V  0.99499867  0.49429344  0.04998229     1.35200
C89         C  0.07831553  0.04912682  0.50241180     0.78600
C90         C  0.41563135  0.46271483  0.51041036     0.78600
C91         C  0.45204597  0.07500736  0.50307669     0.78500
C92         C  0.05148891  0.43637250  0.49316691     0.78500
C93         C  0.44681787  0.21793330  0.39023111    -0.15300
C94         C  0.47506098  0.20331623  0.34755885    -0.30500
H95         H  0.43038564  0.25065316  0.38578878     0.13700
H96         H  0.48804318  0.16935829  0.34756745     0.14300
C97         C  0.48955189  0.20722681  0.13582581    -0.15300
C98         C  0.44949326  0.18781483  0.11534229    -0.30500
H99         H  0.96878058  0.26569665  0.09375138     0.13700
H100        H  0.41850346  0.18310185  0.14333661     0.14300
C101        C  0.02501494  0.30505163  0.39256500    -0.15300
C102        C  0.04330569  0.27643176  0.35373085    -0.30500
H103        H  0.99025477  0.32026602  0.38289534     0.13700
H104        H  0.07862333  0.26182154  0.35850092     0.14300
C105        C  0.06526610  0.28184255  0.10285462    -0.15300
C106        C  0.04329084  0.30466201  0.14470459    -0.30500
H107        H  0.06683298  0.24567183  0.10625758     0.13700
H108        H  0.46590353  0.29376098  0.10281327     0.14100
C109        C  0.31025720  0.45637623  0.36922572    -0.15300
C110        C  0.27839505  0.43804970  0.40563579    -0.30500
H111        H  0.34872901  0.45642200  0.37885483     0.13700
H112        H  0.24002359  0.43971024  0.39531396     0.14300
C113        C  0.27738996  0.45215169  0.10774042    -0.15300
C114        C  0.30055123  0.45615108  0.15869928    -0.30500
H115        H  0.23949761  0.45993146  0.10280706     0.13700
H116        H  0.31188834  0.94737883  0.17187093     0.14300
C117        C  0.18784803  0.03952148  0.36226980    -0.15300
C118        C  0.21379201  0.06964575  0.39163812    -0.30500
H119        H  0.15558767  0.02485969  0.38126596     0.13700
H120        H  0.24884380  0.08029799  0.37559921     0.14300
C121        C  0.24036870  0.04941847  0.10413261    -0.15300
C122        C  0.21773437  0.05038877  0.15529289    -0.30500
H123        H  0.27498745  0.03346016  0.09876474     0.13700
H124        H  0.18517087  0.07052866  0.15737169     0.14300
O125        O  0.30008090  0.30639342  0.95451960    -0.70700
O126        O  0.21733093  0.20074752  0.95314893    -0.70900
O127        O  0.20553222  0.29118350  0.95080691    -0.70700
O128        O  0.31133044  0.21562739  0.95333110    -0.70800
O129        O  0.29991422  0.20659594  0.55255216    -0.70700
O130        O  0.19504910  0.29371642  0.55864944    -0.70700
O131        O  0.20213293  0.20533191  0.55513023    -0.70700
O132        O  0.29429703  0.29724894  0.56019924    -0.70900
V133        V  0.25857112  0.25353785  0.95461993     1.35200
V134        V  0.24813473  0.25107401  0.55504361     1.35200
C135        C  0.30407539  0.32122032  0.51664332     0.78600
C136        C  0.19245308  0.18465198  0.50933613     0.78600
C137        C  0.18636760  0.30698573  0.99533957     0.78500
C138        C  0.32870867  0.19795861  0.99850077     0.78500
C139        C  0.20782580  0.06668662  0.55599322     0.87600
C140        C  0.15677481  0.04809330  0.55132815    -0.52600
C141        C  0.13540519  0.06866571  0.00471069     0.10500
C142        C  0.16385614  0.10401235  0.96757932     0.21500
C143        C  0.22935622  0.06032759  0.49587367    -0.53400
C144        C  0.20890480  0.07826065  0.94801283     0.10600
C145        C  0.20138290  0.11628171  0.56201593    -0.52900
C146        C  0.18516579  0.13868617  0.01128200     0.11200
H147        H  0.14384488  0.02161432  0.57976434     0.15700
H148        H  0.14220812  0.11894989  0.93178860     0.01400
H149        H  0.26778100  0.04058843  0.98807794     0.16000
H150        H  0.22098805  0.13409749  0.59573783     0.15800
C151        C  0.24511505  0.02138065  0.70817136     0.03400
C152        C  0.25168531  0.48358934  0.71569240     0.03400
C153        C  0.26095440  0.46392163  0.76963641    -0.17200
C154        C  0.23872732  0.47919556  0.81966117     0.03400
C155        C  0.26087893  0.02487876  0.81233874     0.03400
C156        C  0.23994157  0.04263375  0.76174439    -0.17200
H157        H  0.22048331  0.07386000  0.76368821     0.05400
H158        H  0.28479865  0.43541718  0.77203322     0.05400
C159        C  0.28987996  0.43562315  0.56884315     0.87600
C160        C  0.33913444  0.45790361  0.56241243    -0.52600
C161        C  0.37927642  0.44082464  0.00266206     0.10500
C162        C  0.35108580  0.40352005  0.96809457     0.21500
C163        C  0.26538481  0.44115056  0.50979066    -0.53400
C164        C  0.30286822  0.42615400  0.95157221     0.10600
C165        C  0.30052593  0.38640337  0.57486928    -0.52900
C166        C  0.33508018  0.36706264  0.01351338     0.11200
H167        H  0.35107932  0.48524597  0.58969129     0.15700
H168        H  0.37157689  0.39014930  0.93104603     0.01400
H169        H  0.24290818  0.45712420  0.99579209     0.16000
H170        H  0.28317661  0.36699751  0.60891283     0.15800
C171        C  0.06175274  0.31022299  0.94173330     0.87600
C172        C  0.11580202  0.31717838  0.93612212    -0.52600
C173        C  0.12556839  0.32298799  0.50213934     0.10500
C174        C  0.09606633  0.36033336  0.53277939     0.21500
C175        C  0.05591101  0.28251256  0.99716565    -0.53400
C176        C  0.04967223  0.33600894  0.55043206     0.10600
C177        C  0.04267513  0.35537615  0.95500832    -0.52900
C178        C  0.07774284  0.39340317  0.48481511     0.11200
H179        H  0.13482295  0.30336795  0.89973811     0.15700
H180        H  0.11607720  0.37663795  0.56875889     0.01400
H181        H  0.99057513  0.30055270  0.50775093     0.16000
H182        H  0.01455109  0.37066203  0.92831623     0.15800
C183        C  0.00307475  0.27712841  0.68624546     0.03400
C184        C  0.48016367  0.22176636  0.69465429     0.03400
C185        C  0.47802184  0.19989536  0.74820662    -0.17200
C186        C  0.49676454  0.21939189  0.79861139     0.03400
C187        C  0.01938999  0.27099142  0.78969158     0.03400
C188        C  0.02120799  0.29539428  0.73764140    -0.17200
H189        H  0.03775121  0.32825400  0.73713450     0.05400
H190        H  0.46183930  0.16686708  0.75058148     0.05400
C191        C  0.45456555  0.18083419  0.94914522     0.87600
C192        C  0.40080551  0.18726593  0.94496427    -0.52600
C193        C  0.35889532  0.16653777  0.49021702     0.10500
C194        C  0.39854465  0.15049192  0.53454782     0.21500
C195        C  0.46940098  0.19663430  0.00972834    -0.53400
C196        C  0.42412691  0.19475561  0.54781282     0.10600
C197        C  0.46085426  0.13112873  0.95113267    -0.52900
C198        C  0.43721142  0.12296870  0.49966702     0.11200
H199        H  0.38593593  0.20867626  0.91100121     0.15700
H200        H  0.38379531  0.13280201  0.57297413     0.01400
H201        H  0.44980699  0.25181988  0.50032163     0.16000
H202        H  0.48566035  0.11381040  0.92313857     0.15800
O203        O  0.06379177  0.04256179  0.95150702    -0.70700
O204        O  0.45114965  0.46714760  0.94853042    -0.70900
O205        O  0.45633181  0.04060315  0.95902158    -0.70700
O206        O  0.03908005  0.44432843  0.96209319    -0.70800
O207        O  0.03763717  0.45143750  0.54153590    -0.70700
O208        O  0.46528209  0.05475411  0.54899073    -0.70700
O209        O  0.43751422  0.47755134  0.55462098    -0.70700
O210        O  0.05800905  0.03649918  0.54835933    -0.70900
V211        V  0.99855381  0.49409862  0.96019516     1.35200
V212        V  0.99668842  0.50391856  0.54083474     1.35200
C213        C  0.08537269  0.05006598  0.99915975     0.78600
C214        C  0.42916140  0.46049253  0.99606828     0.78600
C215        C  0.44991500  0.06281509  0.00423101     0.78500
C216        C  0.04651264  0.42263218  0.00835743     0.78500
C217        C  0.47636105  0.20753073  0.90079826    -0.15300
C218        C  0.49532769  0.19164926  0.85218146    -0.30500
H219        H  0.46381194  0.24131715  0.90071652     0.13700
H220        H  0.50136434  0.15614530  0.84773197     0.14300
C221        C  0.46287240  0.19708966  0.64288945    -0.15300
C222        C  0.42987894  0.21384749  0.60599433    -0.30500
H223        H  0.01374404  0.21308444  0.60160909     0.13700
H224        H  0.41312196  0.24574866  0.61468408     0.14300
C225        C  0.03370540  0.29189278  0.89139398    -0.15300
C226        C  0.05045195  0.28647493  0.83784426    -0.30500
H227        H  0.99552812  0.28899310  0.89875492     0.13700
H228        H  0.08694608  0.29626557  0.82687992     0.14300
C229        C  0.04063539  0.32624447  0.61251051    -0.15300
C230        C  0.00254282  0.30258690  0.63077188    -0.30500
H231        H  0.07009539  0.33305345  0.64252130     0.13700
H232        H  0.48293812  0.28440075  0.60196815     0.14100
C233        C  0.24751320  0.45650585  0.87605128    -0.15300
C234        C  0.29013528  0.43800822  0.89100608    -0.30500
H235        H  0.21880008  0.45833172  0.90740842     0.13700
H236        H  0.31896315  0.43588909  0.85971210     0.14300
C237        C  0.25933935  0.45252640  0.61735095    -0.15300
C238        C  0.27929172  0.46494302  0.66756113    -0.30500
H239        H  0.22065367  0.45602569  0.61048986     0.13700
H240        H  0.32128126  0.94103777  0.65653168     0.14300
C241        C  0.25756744  0.04819441  0.86829696    -0.15300
C242        C  0.21689834  0.06755321  0.88640304    -0.30500
H243        H  0.28798075  0.04451955  0.89771857     0.13700
H244        H  0.18646969  0.07141356  0.85690297     0.14300
C245        C  0.23798750  0.04754537  0.60491728    -0.15300
C246        C  0.21965190  0.04247305  0.65825888    -0.30500
H247        H  0.27482117  0.03757228  0.59625313     0.13700
H248        H  0.18406108  0.05600943  0.66664252     0.14300
O249        O  0.28354540  0.80677954  0.45369740    -0.70700
O250        O  0.20600863  0.69823790  0.45291269    -0.70900
O251        O  0.18958002  0.78734091  0.45788949    -0.70700
O252        O  0.29933570  0.71733320  0.44535797    -0.70800
O253        O  0.30252802  0.70324327  0.03955368    -0.70700
O254        O  0.19307178  0.78549110  0.05347938    -0.70700
O255        O  0.20444446  0.69738276  0.05185577    -0.70700
O256        O  0.29142857  0.79267238  0.04620901    -0.70900
V257        V  0.24480979  0.75253188  0.45405140     1.35200
V258        V  0.24791567  0.74474299  0.04626294     1.35200
C259        C  0.29385315  0.81776730  0.00251564     0.78600
C260        C  0.19356984  0.67450451  0.00830655     0.78600
C261        C  0.17267178  0.79976538  0.50547853     0.78500
C262        C  0.31917856  0.69807148  0.48791219     0.78500
C263        C  0.20253022  0.56001635  0.07045604     0.87600
C264        C  0.15076214  0.54290753  0.06563413    -0.52600
C265        C  0.12413023  0.56679708  0.50188955     0.10500
C266        C  0.15570278  0.60044507  0.46591794     0.21500
C267        C  0.22570925  0.54875315  0.01292783    -0.53400
C268        C  0.20076811  0.57281711  0.45011065     0.10600
C269        C  0.19808609  0.60996708  0.06973784    -0.52900
C270        C  0.17597973  0.63486039  0.51062122     0.11200
H271        H  0.13573811  0.51802764  0.09473269     0.15700
H272        H  0.13643913  0.61566690  0.42841166     0.01400
H273        H  0.25641426  0.53458443  0.49522297     0.16000
H274        H  0.21721973  0.62955546  0.10214842     0.15800
C275        C  0.24564963  0.50937087  0.21611845     0.03400
C276        C  0.25125052  0.98195569  0.21183222     0.03400
C277        C  0.25312242  0.95937433  0.26500049    -0.17200
C278        C  0.23156048  0.97698783  0.31428225     0.03400
C279        C  0.26012124  0.51555397  0.31975806     0.03400
C280        C  0.23641350  0.52953675  0.26919496    -0.17200
H281        H  0.21102586  0.55684108  0.27031319     0.05400
H282        H  0.27067436  0.92715844  0.26765567     0.05400
C283        C  0.28224749  0.93324898  0.06218376     0.87600
C284        C  0.33459150  0.94911470  0.05843178    -0.52600
C285        C  0.36350731  0.93923350  0.50276834     0.10500
C286        C  0.33590982  0.90236086  0.46749703     0.21500
C287        C  0.25975008  0.94585282  0.00402534    -0.53400
C288        C  0.28849466  0.92540197  0.44922255     0.10600
C289        C  0.28480050  0.88290764  0.06169348    -0.52900
C290        C  0.31857612  0.86655911  0.51234099     0.11200
H291        H  0.35004415  0.97279965  0.08880978     0.15700
H292        H  0.35718122  0.88857142  0.43134494     0.01400
H293        H  0.22904167  0.96007878  0.49047150     0.16000
H294        H  0.26525909  0.86288365  0.09333150     0.15800
C295        C  0.04484714  0.81768839  0.45344286     0.87600
C296        C  0.09416608  0.79784282  0.46084738    -0.52600
C297        C  0.11852908  0.81268477  0.00378343     0.10500
C298        C  0.09376945  0.85262640  0.03520194     0.21500
C299        C  0.02155554  0.81234024  0.51336252    -0.53400
C300        C  0.04613708  0.83196472  0.05687960     0.10600
C301        C  0.05359249  0.86674534  0.44514131    -0.52900
C302        C  0.07649878  0.88619306  0.98711719     0.11200
H303        H  0.10621797  0.77055250  0.43388474     0.15700
H304        H  0.11686471  0.86800864  0.06919718     0.01400
H305        H  0.98375788  0.79707356  0.01962763     0.16000
H306        H  0.03551629  0.88412231  0.40961303     0.15800
C307        C  0.00709729  0.77380339  0.19526156     0.03400
C308        C  0.48739289  0.71757788  0.16844394     0.03400
C309        C  0.47407252  0.69547532  0.21964022    -0.17200
C310        C  0.49039638  0.71030095  0.27361167     0.03400
C311        C  0.01731071  0.77170055  0.30009168     0.03400
C312        C  0.01621250  0.79549558  0.24762503    -0.17200
H313        H  0.02287395  0.83118729  0.24751127     0.05400
H314        H  0.44914195  0.66744495  0.21761978     0.05400
C315        C  0.43769596  0.69268338  0.42687814     0.87600
C316        C  0.38408150  0.68274657  0.42363285    -0.52600
C317        C  0.36378165  0.67041603  0.97261757     0.10500
C318        C  0.40763719  0.65645559  0.01246677     0.21500
C319        C  0.44389064  0.72276635  0.47981054    -0.53400
C320        C  0.43739023  0.70005239  0.01421820     0.10600
C321        C  0.46028662  0.64859380  0.44355879    -0.52900
C322        C  0.44035862  0.62376407  0.97667579     0.11200
H323        H  0.36338461  0.69410041  0.38618252     0.15700
H324        H  0.39667774  0.64299366  0.05528170     0.01400
H325        H  0.46490617  0.74904454  0.95400467     0.16000
H326        H  0.48791303  0.63288780  0.41764551     0.15800
O327        O  0.05151343  0.54275492  0.44802276    -0.70700
O328        O  0.43327889  0.96788953  0.44969823    -0.70900
O329        O  0.45970407  0.55750057  0.45570014    -0.70700
O330        O  0.04176250  0.95368358  0.45456592    -0.70800
O331        O  0.04424074  0.94773136  0.04304442    -0.70700
O332        O  0.47462968  0.56300569  0.03819489    -0.70700
O333        O  0.43323706  0.96001355  0.05333999    -0.70700
O334        O  0.05325372  0.52686030  0.05548706    -0.70900
V335        V  0.00006686  0.00197659  0.45645511     1.35200
V336        V  0.00786650  0.00265083  0.04277894     1.35200
C337        C  0.07283647  0.55153615  0.49559327     0.78600
C338        C  0.41345106  0.95769970  0.49733623     0.78600
C339        C  0.45471856  0.58091990  0.50048323     0.78500
C340        C  0.05362849  0.93271739  0.49980779     0.78500
C341        C  0.45730145  0.71343317  0.37245411    -0.15300
C342        C  0.46934861  0.68938885  0.32592666    -0.30500
H343        H  0.46109428  0.74944501  0.37139411     0.13700
H344        H  0.46109439  0.65392484  0.32484632     0.14300
C345        C  0.46844073  0.69834869  0.11367634    -0.15300
C346        C  0.45331818  0.72240096  0.06787160    -0.30500
H347        H  0.03063356  0.71566379  0.10596446     0.13700
H348        H  0.45529352  0.75854444  0.06810729     0.14300
C349        C  0.01722415  0.79902103  0.40285088    -0.15300
C350        C  0.03854860  0.79464895  0.35090386    -0.30500
H351        H  0.97934442  0.79232368  0.40877416     0.13700
H352        H  0.07506697  0.80741195  0.34534527     0.14300
C353        C  0.03913713  0.82365821  0.11973604    -0.15300
C354        C  0.00225823  0.79947330  0.14052929    -0.30500
H355        H  0.06940085  0.83128297  0.14828996     0.13700
H356        H  0.52858894  0.81755888  0.12223546     0.14100
C357        C  0.23587378  0.95375724  0.37056148    -0.15300
C358        C  0.27773490  0.93561435  0.38802936    -0.30500
H359        H  0.20619821  0.95688963  0.40046014     0.13700
H360        H  0.30748596  0.93283295  0.35800304     0.14300
C361        C  0.25419368  0.95120898  0.11260635    -0.15300
C362        C  0.27561953  0.95966132  0.16356679    -0.30500
H363        H  0.21680349  0.96092152  0.10575495     0.13700
H364        H  0.33744067  0.44388957  0.16128238     0.14300
C365        C  0.25242437  0.53848369  0.37566811    -0.15300
C366        C  0.21144004  0.55970190  0.38984868    -0.30500
H367        H  0.28118873  0.53533920  0.40743284     0.13700
H368        H  0.18254597  0.56391276  0.35841831     0.14300
C369        C  0.23298468  0.54435261  0.12098081    -0.15300
C370        C  0.21491113  0.52377800  0.16759319    -0.30500
H371        H  0.27162305  0.55103590  0.11943533     0.13700
H372        H  0.17632613  0.52105556  0.17397346     0.14300
O373        O  0.27541277  0.80359293  0.95526839    -0.70700
O374        O  0.20545744  0.69005254  0.95882558    -0.70900
O375        O  0.18349330  0.77806799  0.96095062    -0.70700
O376        O  0.29735555  0.71534978  0.94750592    -0.70800
O377        O  0.30264046  0.70631111  0.53795457    -0.70700
O378        O  0.19644756  0.79027822  0.55129112    -0.70700
O379        O  0.20515572  0.70240141  0.54639661    -0.70700
O380        O  0.29518019  0.79568569  0.54555331    -0.70900
V381        V  0.24072009  0.74678797  0.95709806     1.35200
V382        V  0.24999265  0.74888668  0.54361350     1.35200
C383        C  0.30130959  0.82009713  0.50156084     0.78600
C384        C  0.19372900  0.68139655  0.50136686     0.78600
C385        C  0.16801254  0.79306404  0.00779298     0.78500
C386        C  0.31897180  0.69631476  0.98885912     0.78500
C387        C  0.20040154  0.56474221  0.55489438     0.87600
C388        C  0.14917563  0.54792703  0.54675591    -0.52600
C389        C  0.12520738  0.55878941  0.01907513     0.10500
C390        C  0.15572370  0.59132475  0.97998627     0.21500
C391        C  0.22480748  0.55553057  0.49741143    -0.53400
C392        C  0.20092899  0.56386388  0.96572804     0.10600
C393        C  0.19616977  0.61458333  0.55817052    -0.52900
C394        C  0.17667882  0.62798718  0.02124302     0.11200
H395        H  0.13383448  0.52230623  0.57479780     0.15700
H396        H  0.13599374  0.60462601  0.94162122     0.01400
H397        H  0.25946758  0.53080217  0.00979321     0.16000
H398        H  0.21454798  0.63247835  0.59278031     0.15800
C399        C  0.21843306  0.51957843  0.71134542     0.03400
C400        C  0.27173512  0.98081943  0.70627158     0.03400
C401        C  0.29183417  0.96333192  0.75717865    -0.17200
C402        C  0.28606244  0.98425926  0.80965514     0.03400
C403        C  0.20699614  0.51591332  0.81549726     0.03400
C404        C  0.19628896  0.53466022  0.76174691    -0.17200
H405        H  0.17141388  0.56250931  0.75955471     0.05400
H406        H  0.31161429  0.93214587  0.75633359     0.05400
C407        C  0.28720610  0.93481601  0.55333879     0.87600
C408        C  0.33663013  0.95615096  0.54600105    -0.52600
C409        C  0.36017656  0.93266117  0.01311091     0.10500
C410        C  0.32881598  0.90163110  0.97332420     0.21500
C411        C  0.26232918  0.94147137  0.49479079    -0.53400
C412        C  0.28449940  0.93060190  0.95769169     0.10600
C413        C  0.29648609  0.88534004  0.55875032    -0.52900
C414        C  0.30679466  0.86519736  0.01422981     0.11200
H415        H  0.34961159  0.98297655  0.57358721     0.15700
H416        H  0.34821734  0.88818138  0.93549060     0.01400
H417        H  0.22773854  0.96644509  0.99969763     0.16000
H418        H  0.27900627  0.86594298  0.59272955     0.15800
C419        C  0.04163022  0.81678298  0.95305274     0.87600
C420        C  0.08949681  0.79432424  0.96235959    -0.52600
C421        C  0.12225114  0.81687493  0.50265149     0.10500
C422        C  0.09499445  0.85398721  0.53698976     0.21500
C423        C  0.01775127  0.81437244  0.01299702    -0.53400
C424        C  0.04895268  0.82997275  0.55791989     0.10600
C425        C  0.05349525  0.86525539  0.94254948    -0.52900
C426        C  0.07502318  0.88777338  0.49086505     0.11200
H427        H  0.09981366  0.76559291  0.93687652     0.15700
H428        H  0.11724766  0.86959095  0.57160026     0.01400
H429        H  0.98820689  0.79389961  0.51922179     0.16000
H430        H  0.03626261  0.88295740  0.90669221     0.15800
C431        C  0.00842583  0.76999580  0.69498422     0.03400
C432        C  0.49274932  0.72660445  0.67267269     0.03400
C433        C  0.48349269  0.70791643  0.72716376    -0.17200
C434        C  0.50552515  0.72486454  0.77705358     0.03400
C435        C  0.01770239  0.76852338  0.80005419     0.03400
C436        C  0.01593680  0.79209562  0.74741236    -0.17200
H437        H  0.02092228  0.82801487  0.74719090     0.05400
H438        H  0.45868166  0.67989396  0.73085284     0.05400
C439        C  0.43263801  0.68644307  0.91041378     0.87600
C440        C  0.37882258  0.68032902  0.91736210    -0.52600
C441        C  0.36370041  0.67135159  0.47585699     0.10500
C442        C  0.40300662  0.65879036  0.52229470     0.21500
C443        C  0.44829551  0.71670752  0.96060191    -0.53400
C444        C  0.42892740  0.70402686  0.53016731     0.10600
C445        C  0.45264826  0.64119258  0.92409431    -0.52900
C446        C  0.44104165  0.62863526  0.49119664     0.11200
H447        H  0.35467953  0.69121031  0.88276990     0.15700
H448        H  0.38820423  0.64387043  0.56258089     0.01400
H449        H  0.45700890  0.75673782  0.47806768     0.16000
H450        H  0.47559963  0.62417966  0.89345059     0.15800
O451        O  0.05569218  0.53210737  0.96195678    -0.70700
O452        O  0.43362127  0.95409804  0.95994589    -0.70900
O453        O  0.46978168  0.55506625  0.94532630    -0.70700
O454        O  0.04788985  0.95454780  0.94972499    -0.70800
O455        O  0.03962421  0.94808140  0.54799462    -0.70700
O456        O  0.46813588  0.56417751  0.54860480    -0.70700
O457        O  0.43539261  0.96821305  0.54352872    -0.70700
O458        O  0.05203160  0.54009607  0.54176884    -0.70900
V459        V  0.00703943  0.00425700  0.95278725     1.35200
V460        V  0.00109535  0.00217512  0.54640208     1.35200
C461        C  0.07525488  0.54012562  0.01077069     0.78600
C462        C  0.41167066  0.94806872  0.00755713     0.78600
C463        C  0.46074007  0.57822542  0.98916298     0.78500
C464        C  0.05799843  0.93239419  0.99490709     0.78500
C465        C  0.44646155  0.70308433  0.85095047    -0.15300
C466        C  0.49269773  0.70569011  0.83412717    -0.30500
H467        H  0.41806615  0.71280664  0.82069189     0.13700
H468        H  0.52144343  0.69762483  0.86470045     0.14300
C469        C  0.46964231  0.70424308  0.62296399    -0.15300
C470        C  0.44100075  0.72554154  0.58532485    -0.30500
H471        H  0.03264597  0.70611710  0.60724669     0.13700
H472        H  0.43503799  0.76114992  0.58974422     0.14300
C473        C  0.01413693  0.79760008  0.90242254    -0.15300
C474        C  0.03657439  0.79292977  0.85105132    -0.30500
H475        H  0.97665650  0.78888915  0.90831934     0.13700
H476        H  0.07281014  0.80657090  0.84626546     0.14300
C477        C  0.04157896  0.82024571  0.62039831    -0.15300
C478        C  0.00463293  0.79541751  0.63996385    -0.30500
H479        H  0.07125239  0.82808563  0.64972317     0.13700
H480        H  0.53655612  0.82566578  0.61773817     0.14100
C481        C  0.30281385  0.96044126  0.86189657    -0.15300
C482        C  0.27028735  0.94516289  0.89951840    -0.30500
H483        H  0.34130754  0.95680688  0.86996620     0.13700
H484        H  0.23205766  0.95058372  0.89086061     0.14300
C485        C  0.26074230  0.95229633  0.60474267    -0.15300
C486        C  0.28572548  0.95638428  0.65422383    -0.30500
H487        H  0.22371893  0.96349984  0.60048406     0.13700
H488        H  0.31731841  0.45828402  0.67562564     0.14300
C489        C  0.18733059  0.53771740  0.86705562    -0.15300
C490        C  0.21764062  0.55252396  0.90788091    -0.30500
H491        H  0.14846080  0.54040608  0.87194847     0.13700
H492        H  0.25635939  0.54890251  0.90191088     0.14300
C493        C  0.22572621  0.54580842  0.60743141    -0.15300
C494        C  0.20158645  0.54167759  0.65733001    -0.30500
H495        H  0.26334846  0.53659588  0.60421989     0.13700
H496        H  0.16558453  0.55595905  0.65898206     0.14300
O497        O  0.78539645  0.30371088  0.45577783    -0.70700
O498        O  0.70166456  0.19796209  0.45344091    -0.70900
O499        O  0.69119241  0.28934398  0.45215434    -0.70700
O500        O  0.79547957  0.21284007  0.45273207    -0.70800
O501        O  0.80007278  0.20034900  0.04825574    -0.70700
O502        O  0.69069608  0.28255226  0.05553945    -0.70700
O503        O  0.70148444  0.19404612  0.05690993    -0.70700
O504        O  0.78939525  0.28917137  0.05071429    -0.70900
V505        V  0.74332347  0.25093442  0.45529161     1.35200
V506        V  0.74536151  0.24149712  0.05111108     1.35200
C507        C  0.79826096  0.31071779  0.00496223     0.78600
C508        C  0.68703642  0.17298572  0.01302322     0.78600
C509        C  0.67238989  0.30511586  0.49685419     0.78500
C510        C  0.81533613  0.19750248  0.49765124     0.78500
C511        C  0.70154222  0.05911032  0.06318275     0.87600
C512        C  0.65362926  0.03499510  0.05576621    -0.52600
C513        C  0.62570325  0.06073561  0.50231334     0.10500
C514        C  0.65299594  0.09806951  0.46646289     0.21500
C515        C  0.72585175  0.05654900  0.00414408    -0.53400
C516        C  0.70028520  0.07483565  0.44862112     0.10600
C517        C  0.68796146  0.10733699  0.07100292    -0.52900
C518        C  0.67087233  0.13396236  0.51119658     0.11200
H519        H  0.64311446  0.00700574  0.08318191     0.15700
H520        H  0.63138453  0.11191084  0.42991229     0.01400
H521        H  0.76080050  0.04172853  0.49151662     0.16000
H522        H  0.70400739  0.12581916  0.10670411     0.15800
C523        C  0.74458540  0.01518149  0.21220929     0.03400
C524        C  0.77223368  0.47544456  0.20428411     0.03400
C525        C  0.79155435  0.45793449  0.25573266    -0.17200
C526        C  0.78559846  0.47920195  0.30810165     0.03400
C527        C  0.75844609  0.01979803  0.31632046     0.03400
C528        C  0.73526088  0.03469688  0.26580598    -0.17200
H529        H  0.71071251  0.06265687  0.26749464     0.05400
H530        H  0.81128564  0.42672445  0.25535664     0.05400
C531        C  0.78959441  0.42825433  0.05136688     0.87600
C532        C  0.84047157  0.44637324  0.04647598    -0.52600
C533        C  0.86922031  0.43565746  0.50781192     0.10500
C534        C  0.83794617  0.40135160  0.47181157     0.21500
C535        C  0.76755894  0.43556896  0.99153974    -0.53400
C536        C  0.79123474  0.42751951  0.45796427     0.10600
C537        C  0.79497647  0.37845963  0.05793526    -0.52900
C538        C  0.81979179  0.36462692  0.51584140     0.11200
H539        H  0.85328344  0.47331774  0.07398769     0.15700
H540        H  0.85662249  0.38792369  0.43344791     0.01400
H541        H  0.73441548  0.46112990  0.50281947     0.16000
H542        H  0.77516560  0.36089553  0.09170478     0.15800
C543        C  0.54770377  0.31174434  0.44747983     0.87600
C544        C  0.60151490  0.31536684  0.44029219    -0.52600
C545        C  0.62045239  0.31363219  0.00121332     0.10500
C546        C  0.59340057  0.35189555  0.03366698     0.21500
C547        C  0.54070496  0.28990760  0.50753752    -0.53400
C548        C  0.54542502  0.32980757  0.05117014     0.10600
C549        C  0.53156942  0.35933508  0.45441259    -0.52900
C550        C  0.57707444  0.38694399  0.98695803     0.11200
H551        H  0.61828417  0.29831355  0.40430539     0.15700
H552        H  0.61468147  0.36635852  0.06994080     0.01400
H553        H  0.48453169  0.29698324  0.00807381     0.16000
H554        H  0.50306129  0.37425785  0.42839270     0.15800
C555        C  0.49427060  0.27816390  0.18997883     0.03400
C556        C  0.98434933  0.24703769  0.18525977     0.03400
C557        C  0.96825114  0.22248828  0.23424851    -0.17200
C558        C  0.98577620  0.23171962  0.29061140     0.03400
C559        C  0.49543705  0.27740649  0.29609289     0.03400
C560        C  0.49847567  0.30076554  0.24278307    -0.17200
H561        H  0.50462408  0.33651348  0.24228799     0.05400
H562        H  0.94167532  0.19619651  0.22916271     0.05400
C563        C  0.94144686  0.18925135  0.44271276     0.87600
C564        C  0.88791594  0.19555076  0.44277956    -0.52600
C565        C  0.86336933  0.16770605  0.98578382     0.10500
C566        C  0.90262215  0.14889095  0.02868886     0.21500
C567        C  0.95874340  0.20327073  0.50358812    -0.53400
C568        C  0.93182188  0.19070913  0.04509873     0.10600
C569        C  0.94830714  0.13961246  0.44194498    -0.52900
C570        C  0.93882793  0.12113851  0.99146033     0.11200
H571        H  0.87143989  0.21828819  0.41148824     0.15700
H572        H  0.88758106  0.12996651  0.06597033     0.01400
H573        H  0.96460014  0.24664467  0.00012293     0.16000
H574        H  0.97305372  0.12424556  0.41192926     0.15800
O575        O  0.55288281  0.03584014  0.44994292    -0.70700
O576        O  0.93803330  0.46498944  0.45083882    -0.70900
O577        O  0.95868604  0.05063577  0.45295501    -0.70700
O578        O  0.53033106  0.45059969  0.45730884    -0.70800
O579        O  0.54242490  0.44891399  0.04264427    -0.70700
O580        O  0.97154451  0.05762467  0.04568844    -0.70700
O581        O  0.93686917  0.46130346  0.04824989    -0.70700
O582        O  0.55574485  0.01601204  0.05276442    -0.70900
V583        V  0.49494546  0.50393568  0.45842832     1.35200
V584        V  0.50849462  0.50580470  0.03959321     1.35200
C585        C  0.57582923  0.04127003  0.49712947     0.78600
C586        C  0.91909565  0.45495475  0.49930819     0.78600
C587        C  0.94801150  0.07183316  0.49767894     0.78500
C588        C  0.53994502  0.42959741  0.50355082     0.78500
C589        C  0.96229439  0.21642879  0.39343382    -0.15300
C590        C  0.97134507  0.20145255  0.33960850    -0.30500
H591        H  0.95868364  0.25173217  0.39936444     0.13700
H592        H  0.96527838  0.16654291  0.32976140     0.14300
C593        C  0.96438526  0.23905569  0.12524538    -0.15300
C594        C  0.94390584  0.20062531  0.10709842    -0.30500
H595        H  0.52067845  0.21238042  0.10829274     0.13700
H596        H  0.93828882  0.17357764  0.13773818     0.14300
C597        C  0.52708552  0.28533133  0.39740499    -0.15300
C598        C  0.50527347  0.30314641  0.35006754    -0.30500
H599        H  0.53863165  0.25086189  0.39647762     0.13700
H600        H  0.49938834  0.33876975  0.34744561     0.14300
C601        C  0.53471218  0.32221399  0.11372719    -0.15300
C602        C  0.49468289  0.30193117  0.13311040    -0.30500
H603        H  0.56388391  0.32861083  0.14434344     0.13700
H604        H  0.04017721  0.34072794  0.14161063     0.14100
C605        C  0.80457962  0.45677349  0.36043147    -0.15300
C606        C  0.77411731  0.44113360  0.40029722    -0.30500
H607        H  0.84341441  0.45414917  0.36648108     0.13700
H608        H  0.73545590  0.44542391  0.39373618     0.14300
C609        C  0.76284233  0.44839161  0.10113328    -0.15300
C610        C  0.78591199  0.45037416  0.15231457    -0.30500
H611        H  0.72725353  0.46243006  0.09450819     0.13700
H612        H  0.83654229  0.95029069  0.15865838     0.14300
C613        C  0.75175892  0.04299395  0.37213227    -0.15300
C614        C  0.71032600  0.06269763  0.38779858    -0.30500
H615        H  0.78144796  0.04063655  0.40273592     0.13700
H616        H  0.68057608  0.06562050  0.35723203     0.14300
C617        C  0.73345010  0.04305487  0.11176680    -0.15300
C618        C  0.71522768  0.03198865  0.16329150    -0.30500
H619        H  0.77210150  0.04102715  0.10463745     0.13700
H620        H  0.67715890  0.03787739  0.17130215     0.14300
O621        O  0.78212425  0.29460832  0.95758996    -0.70700
O622        O  0.69841782  0.18900564  0.96365295    -0.70900
O623        O  0.68744253  0.27930860  0.96203603    -0.70700
O624        O  0.79277889  0.20378053  0.95510202    -0.70800
O625        O  0.79650610  0.20718359  0.54612490    -0.70700
O626        O  0.69029692  0.29303853  0.54553048    -0.70700
O627        O  0.69764171  0.20322420  0.54657504    -0.70700
O628        O  0.78856855  0.29608231  0.54888404    -0.70900
V629        V  0.74037911  0.24171089  0.96140758     1.35200
V630        V  0.74311730  0.24981741  0.54507570     1.35200
C631        C  0.79958146  0.31863073  0.50465454     0.78600
C632        C  0.68786420  0.18135176  0.50159738     0.78600
C633        C  0.66932189  0.29298479  0.00826186     0.78500
C634        C  0.81580921  0.18958775  0.99855052     0.78500
C635        C  0.70248146  0.06510704  0.55321018     0.87600
C636        C  0.65333832  0.04363606  0.54580195    -0.52600
C637        C  0.62465934  0.05164388  0.01271930     0.10500
C638        C  0.64943805  0.09150262  0.97842142     0.21500
C639        C  0.72696098  0.05931915  0.49491652    -0.53400
C640        C  0.69808721  0.07225922  0.95962739     0.10600
C641        C  0.69293780  0.11443330  0.55816590    -0.52900
C642        C  0.66600479  0.12714739  0.02412684     0.11200
H643        H  0.64127645  0.01630751  0.57346863     0.15700
H644        H  0.62696964  0.10526381  0.94257085     0.01400
H645        H  0.76155058  0.04263055  0.99801538     0.16000
H646        H  0.71022511  0.13317920  0.59279152     0.15800
C647        C  0.72739989  0.02296139  0.70940975     0.03400
C648        C  0.76594964  0.48578868  0.71017529     0.03400
C649        C  0.77825258  0.46978454  0.76543462    -0.17200
C650        C  0.75763032  0.48786599  0.81494828     0.03400
C651        C  0.71931550  0.02261096  0.81395307     0.03400
C652        C  0.70441961  0.03724374  0.75963067    -0.17200
H653        H  0.67478570  0.06074341  0.75670094     0.05400
H654        H  0.80441717  0.44318852  0.76961327     0.05400
C655        C  0.79428835  0.43307567  0.56243520     0.87600
C656        C  0.84469265  0.45198108  0.55391734    -0.52600
C657        C  0.86819918  0.42785700  0.00496001     0.10500
C658        C  0.83924799  0.39182559  0.96856311     0.21500
C659        C  0.76786779  0.44245559  0.50550859    -0.53400
C660        C  0.79443447  0.41792207  0.94760719     0.10600
C661        C  0.80095228  0.38326425  0.56475658    -0.52900
C662        C  0.81718430  0.35746688  0.01313879     0.11200
H663        H  0.85952624  0.47793834  0.58146745     0.15700
H664        H  0.86055567  0.37655040  0.93349002     0.01400
H665        H  0.73505089  0.45505794  0.98444622     0.16000
H666        H  0.78405758  0.36407479  0.59931081     0.15800
C667        C  0.54583265  0.31831101  0.94561518     0.87600
C668        C  0.59376590  0.29644873  0.95687680    -0.52600
C669        C  0.62666561  0.33114998  0.48708169     0.10500
C670        C  0.59215759  0.35259913  0.53251452     0.21500
C671        C  0.51934347  0.31335901  0.00437975    -0.53400
C672        C  0.56175201  0.31263714  0.55251298     0.10600
C673        C  0.55703963  0.36717180  0.93941083    -0.52900
C674        C  0.55469219  0.38207293  0.49747579     0.11200
H675        H  0.60536099  0.26753574  0.93278778     0.15700
H676        H  0.61110098  0.37065650  0.56785774     0.01400
H677        H  0.52437900  0.25757627  0.51397168     0.16000
H678        H  0.54152942  0.38574381  0.90316969     0.15800
C679        C  0.50447304  0.26340891  0.69042539     0.03400
C680        C  0.98669178  0.23263004  0.68638088     0.03400
C681        C  0.98032582  0.20973404  0.73895255    -0.17200
C682        C  0.99469656  0.22941484  0.79136123     0.03400
C683        C  0.51725981  0.26291122  0.79572421     0.03400
C684        C  0.52226791  0.28372210  0.74117433    -0.17200
H685        H  0.54086618  0.31557450  0.73811313     0.05400
H686        H  0.96612276  0.17595134  0.73886946     0.05400
C687        C  0.93793431  0.19112014  0.93857384     0.87600
C688        C  0.88389458  0.18487656  0.93659226    -0.52600
C689        C  0.86363677  0.17672140  0.48800045     0.10500
C690        C  0.89742328  0.14796365  0.52799381     0.21500
C691        C  0.94801022  0.21417807  0.99734414    -0.53400
C692        C  0.93522111  0.18178852  0.54829084     0.10600
C693        C  0.95686977  0.14436973  0.94562853    -0.52900
C694        C  0.92765438  0.11707963  0.48737088     0.11200
H695        H  0.86330760  0.20075053  0.90188606     0.15700
H696        H  0.87853351  0.13018777  0.56364958     0.01400
H697        H  0.98671481  0.22794529  0.51018516     0.16000
H698        H  0.98285959  0.12979248  0.91676496     0.15800
O699        O  0.55259083  0.02430625  0.95959455    -0.70700
O700        O  0.94145641  0.45566590  0.95509607    -0.70900
O701        O  0.96660918  0.05428690  0.95212266    -0.70700
O702        O  0.54903901  0.45490771  0.94963070    -0.70800
O703        O  0.52959289  0.44808602  0.55110093    -0.70700
O704        O  0.96255863  0.05639614  0.54630797    -0.70700
O705        O  0.94122316  0.46745541  0.54443190    -0.70700
O706        O  0.55690378  0.02570042  0.54281160    -0.70900
V707        V  0.50910791  0.50474332  0.94982098     1.35200
V708        V  0.49856328  0.50600759  0.54827623     1.35200
C709        C  0.57506871  0.03096966  0.00707011     0.78600
C710        C  0.91856491  0.44714691  0.00144519     0.78600
C711        C  0.95744633  0.07486043  0.99817892     0.78500
C712        C  0.55763340  0.43298977  0.99521402     0.78500
C713        C  0.95392543  0.21680732  0.88477864    -0.15300
C714        C  0.98716086  0.20384722  0.84584538    -0.30500
H715        H  0.93399659  0.24723320  0.87545559     0.13700
H716        H  0.00695718  0.17308251  0.85058156     0.14300
C717        C  0.98322223  0.20929136  0.63050199    -0.15300
C718        C  0.94186630  0.19217675  0.61039384    -0.30500
H719        H  0.47945984  0.16516046  0.63372088     0.13700
H720        H  0.91123145  0.18819127  0.63906784     0.14300
C721        C  0.51975683  0.30228063  0.89127862    -0.15300
C722        C  0.54256471  0.28299833  0.84620037    -0.30500
H723        H  0.48162229  0.31009330  0.88700692     0.13700
H724        H  0.58161650  0.28155520  0.84506605     0.14300
C725        C  0.55565742  0.29942049  0.61415167    -0.15300
C726        C  0.51260503  0.28431681  0.63268081    -0.30500
H727        H  0.58624094  0.30189102  0.64366757     0.13700
H728        H  0.97339947  0.29515730  0.60068614     0.14100
C729        C  0.77086546  0.47120379  0.87329177    -0.15300
C730        C  0.78527732  0.42957973  0.88637804    -0.30500
H731        H  0.76776377  0.49451601  0.90841537     0.13700
H732        H  0.79148852  0.40487213  0.85330836     0.14300
C733        C  0.76737506  0.45031105  0.61395630    -0.15300
C734        C  0.79044748  0.46416538  0.66170584    -0.30500
H735        H  0.72836586  0.45360852  0.61073335     0.13700
H736        H  0.83115939  0.97173985  0.66982860     0.14300
C737        C  0.69331186  0.03921382  0.86471552    -0.15300
C738        C  0.71440530  0.06877504  0.89982726    -0.30500
H739        H  0.65940388  0.02327634  0.87658035     0.13700
H740        H  0.74997742  0.08191814  0.88926642     0.14300
C741        C  0.73016877  0.04724105  0.60457444    -0.15300
C742        C  0.70715500  0.04151656  0.65501590    -0.30500
H743        H  0.76828695  0.04031845  0.60015971     0.13700
H744        H  0.66992617  0.05278762  0.65727727     0.14300
O745        O  0.78944914  0.80554083  0.45820787    -0.70700
O746        O  0.70978212  0.69737662  0.45042515    -0.70900
O747        O  0.69585860  0.78772713  0.44418779    -0.70700
O748        O  0.80299910  0.71534199  0.45965229    -0.70800
O749        O  0.80880708  0.71209546  0.05534091    -0.70700
O750        O  0.69854774  0.79335181  0.04432701    -0.70700
O751        O  0.71037136  0.70460865  0.05181757    -0.70700
O752        O  0.79700594  0.80026465  0.05162590    -0.70900
V753        V  0.74922538  0.75149228  0.45491980     1.35200
V754        V  0.75359613  0.75258029  0.04904270     1.35200
C755        C  0.81057055  0.82038015  0.00649852     0.78600
C756        C  0.70123669  0.68243093  0.00708354     0.78600
C757        C  0.67250589  0.80319393  0.48578095     0.78500
C758        C  0.82159561  0.70381092  0.50716248     0.78500
C759        C  0.71652287  0.56582648  0.05472187     0.87600
C760        C  0.66694501  0.54502802  0.04557020    -0.52600
C761        C  0.62978803  0.56234599  0.50023382     0.10500
C762        C  0.65813788  0.59782282  0.46267578     0.21500
C763        C  0.74140010  0.56225351  0.99622563    -0.53400
C764        C  0.70369775  0.57235184  0.44344865     0.10600
C765        C  0.70686338  0.61505996  0.06249073    -0.52900
C766        C  0.67919544  0.63284649  0.50626789     0.11200
H767        H  0.65369401  0.51767144  0.07236025     0.15700
H768        H  0.63652445  0.61254276  0.42670721     0.01400
H769        H  0.76297826  0.53577567  0.48408864     0.16000
H770        H  0.72425009  0.63306872  0.09769907     0.15800
C771        C  0.74647618  0.51643950  0.20583975     0.03400
C772        C  0.77947297  0.98055240  0.20894821     0.03400
C773        C  0.80130808  0.96505458  0.25997391    -0.17200
C774        C  0.78989252  0.98294946  0.31323399     0.03400
C775        C  0.75998788  0.51967067  0.31015283     0.03400
C776        C  0.74023849  0.53753370  0.25914611    -0.17200
H777        H  0.72108173  0.56896069  0.26057950     0.05400
H778        H  0.82674712  0.93764822  0.25854955     0.05400
C779        C  0.80292485  0.93602025  0.05485945     0.87600
C780        C  0.85262312  0.95619591  0.04689037    -0.52600
C781        C  0.87257595  0.93642337  0.51323758     0.10500
C782        C  0.83994156  0.90371876  0.47673281     0.21500
C783        C  0.77808099  0.94195504  0.99613394    -0.53400
C784        C  0.79475690  0.93184964  0.46289756     0.10600
C785        C  0.81151675  0.88679241  0.06183285    -0.52900
C786        C  0.81950651  0.86768752  0.51997889     0.11200
H787        H  0.86577964  0.98351870  0.07349525     0.15700
H788        H  0.85803321  0.88972157  0.43830585     0.01400
H789        H  0.73903459  0.96726701  0.50749355     0.16000
H790        H  0.79451154  0.86904532  0.09759039     0.15800
C791        C  0.55786543  0.81553582  0.40858157     0.87600
C792        C  0.61191007  0.82105683  0.41442506    -0.52600
C793        C  0.63538165  0.82786321  0.98118336     0.10500
C794        C  0.59361729  0.83616257  0.02506643     0.21500
C795        C  0.54376056  0.78388815  0.45793884    -0.53400
C796        C  0.56948939  0.78961234  0.02717924     0.10600
C797        C  0.53819843  0.86046818  0.42391300    -0.52900
C798        C  0.55533674  0.86675687  0.99319383     0.11200
H799        H  0.63497298  0.81013709  0.37950560     0.15700
H800        H  0.60611830  0.84911627  0.06750778     0.01400
H801        H  0.54246241  0.74010505  0.96886448     0.16000
H802        H  0.51464937  0.87876862  0.39435757     0.15800
C803        C  0.51863156  0.75532963  0.17213145     0.03400
C804        C  0.00283236  0.72691006  0.19400380     0.03400
C805        C  0.00196998  0.70278507  0.24690466    -0.17200
C806        C  0.00813459  0.72501654  0.30042183     0.03400
C807        C  0.52434536  0.74556681  0.27612674     0.03400
C808        C  0.53675748  0.76850997  0.22571825    -0.17200
H809        H  0.56200928  0.79630108  0.22810580     0.05400
H810        H  0.99684003  0.66693411  0.24643654     0.05400
C811        C  0.94703313  0.69032168  0.44639586     0.87600
C812        C  0.89732977  0.70778038  0.45832184    -0.52600
C813        C  0.87854723  0.68156230  0.00149763     0.10500
C814        C  0.90976421  0.64629313  0.03516119     0.21500
C815        C  0.97403118  0.69651940  0.50527874    -0.53400
C816        C  0.95530241  0.67302069  0.05267520     0.10600
C817        C  0.93995292  0.64084642  0.43968594    -0.52900
C818        C  0.92919827  0.61270187  0.98925493     0.11200
H819        H  0.88196260  0.73480689  0.43250579     0.15700
H820        H  0.89047006  0.63016301  0.07177641     0.01400
H821        H  0.01058690  0.71365253  0.00961643     0.16000
H822        H  0.95611757  0.62388344  0.40330806     0.15800
O823        O  0.55487108  0.53767938  0.45187900    -0.70700
O824        O  0.94297590  0.96304561  0.45616263    -0.70900
O825        O  0.95314103  0.55298762  0.44910483    -0.70700
O826        O  0.52803231  0.94834354  0.44481743    -0.70800
O827        O  0.52538232  0.92936378  0.05198350    -0.70700
O828        O  0.95926665  0.54990199  0.04779723    -0.70700
O829        O  0.94999765  0.96939040  0.04422430    -0.70700
O830        O  0.56816189  0.53580687  0.04212761    -0.70900
V831        V  0.49310179  0.00170493  0.45182887     1.35200
V832        V  0.49450903  0.98775574  0.05104093     1.35200
C833        C  0.57856793  0.54574559  0.49795275     0.78600
C834        C  0.92294730  0.95451516  0.50454435     0.78600
C835        C  0.94247680  0.57343497  0.49461861     0.78500
C836        C  0.53700460  0.92362073  0.48823171     0.78500
C837        C  0.96465756  0.71214083  0.39038429    -0.15300
C838        C  0.00169320  0.70026293  0.35650541    -0.30500
H839        H  0.94104393  0.73722017  0.37119559     0.13700
H840        H  0.02411741  0.67179237  0.36744509     0.14300
C841        C  0.00307454  0.70468736  0.13610108    -0.15300
C842        C  0.96511459  0.68145402  0.11571145    -0.30500
H843        H  0.46555027  0.66219446  0.11200939     0.13700
H844        H  0.93696836  0.67191424  0.14593214     0.14300
C845        C  0.54115081  0.80082558  0.34975031    -0.15300
C846        C  0.54754242  0.75928531  0.33067044    -0.30500
H847        H  0.52027881  0.82397940  0.32318242     0.13700
H848        H  0.56522939  0.73433576  0.35767228     0.14300
C849        C  0.55948122  0.76343160  0.07940902    -0.15300
C850        C  0.53509343  0.78181050  0.12231784    -0.30500
H851        H  0.56529471  0.72759141  0.07898688     0.13700
H852        H  0.97240019  0.79019744  0.11244237     0.14100
C853        C  0.80877817  0.96019448  0.36531719    -0.15300
C854        C  0.77801141  0.94486999  0.40508848    -0.30500
H855        H  0.84756850  0.95679381  0.37120382     0.13700
H856        H  0.73937748  0.94926663  0.39842074     0.14300
C857        C  0.77560844  0.95394123  0.10553154    -0.15300
C858        C  0.79907279  0.96088349  0.15566615    -0.30500
H859        H  0.73704595  0.95920967  0.10137730     0.13700
H860        H  0.81984594  0.43233515  0.15627382     0.14300
C861        C  0.75497977  0.54324013  0.36555164    -0.15300
C862        C  0.71319363  0.56159512  0.38221630    -0.30500
H863        H  0.78516874  0.54081913  0.39548819     0.13700
H864        H  0.68316738  0.56429969  0.35191216     0.14300
C865        C  0.74476475  0.54586659  0.10450128    -0.15300
C866        C  0.72335806  0.53864209  0.15559429    -0.30500
H867        H  0.78189893  0.53569729  0.09799134     0.13700
H868        H  0.68720015  0.55159582  0.16202967     0.14300
O869        O  0.79851703  0.80333898  0.95812048    -0.70700
O870        O  0.71536590  0.69812256  0.95871946    -0.70900
O871        O  0.70385394  0.78824606  0.95136805    -0.70700
O872        O  0.80917231  0.71268945  0.96170844    -0.70800
O873        O  0.79873982  0.71354517  0.55308226    -0.70700
O874        O  0.68628929  0.79193501  0.53670022    -0.70700
O875        O  0.70025128  0.70278467  0.54301505    -0.70700
O876        O  0.78322680  0.80105626  0.55127549    -0.70900
V877        V  0.75661107  0.75065102  0.95931252     1.35200
V878        V  0.74199990  0.75213960  0.54426391     1.35200
C879        C  0.79861747  0.82211956  0.50786067     0.78600
C880        C  0.69392055  0.68062531  0.49753936     0.78600
C881        C  0.68201283  0.80364824  0.99424337     0.78500
C882        C  0.82885613  0.70042616  0.00839564     0.78500
C883        C  0.70841878  0.56307004  0.54784333     0.87600
C884        C  0.65767152  0.54426159  0.54289652    -0.52600
C885        C  0.63993560  0.56408513  0.00245474     0.10500
C886        C  0.66754554  0.60199751  0.96940358     0.21500
C887        C  0.73051462  0.55530632  0.48874871    -0.53400
C888        C  0.71528737  0.58015204  0.95150348     0.10600
C889        C  0.70247693  0.61293432  0.55196946    -0.52900
C890        C  0.68449046  0.63569575  0.01639157     0.11200
H891        H  0.64465280  0.51804147  0.57172144     0.15700
H892        H  0.64650669  0.61724527  0.93330601     0.01400
H893        H  0.77536870  0.54498242  0.99025328     0.16000
H894        H  0.72187540  0.63145888  0.58521649     0.15800
C895        C  0.73288289  0.52182634  0.70453985     0.03400
C896        C  0.76565685  0.99163744  0.71431363     0.03400
C897        C  0.78076082  0.97725848  0.76934927    -0.17200
C898        C  0.75764702  0.99194075  0.81924229     0.03400
C899        C  0.72510707  0.52371338  0.80889283     0.03400
C900        C  0.71276611  0.53973598  0.75443790    -0.17200
H901        H  0.68737545  0.56714128  0.75114309     0.05400
H902        H  0.81089773  0.95447273  0.77316250     0.05400
C903        C  0.79726716  0.93690789  0.56751859     0.87600
C904        C  0.84872541  0.95334160  0.55961402    -0.52600
C905        C  0.87927501  0.93793442  0.00398730     0.10500
C906        C  0.85042447  0.90100023  0.96937482     0.21500
C907        C  0.77192030  0.94782747  0.51032863    -0.53400
C908        C  0.80397318  0.92542785  0.95072209     0.10600
C909        C  0.80103435  0.88678309  0.56888530    -0.52900
C910        C  0.83164346  0.86620682  0.01529604     0.11200
H911        H  0.86465189  0.97891792  0.58674743     0.15700
H912        H  0.87109477  0.88625613  0.93337400     0.01400
H913        H  0.74418178  0.95961548  0.99080087     0.16000
H914        H  0.78299215  0.86807887  0.60302487     0.15800
C915        C  0.56381946  0.80669280  0.92486343     0.87600
C916        C  0.61748431  0.81832516  0.92680918    -0.52600
C917        C  0.62812896  0.82963932  0.46977183     0.10500
C918        C  0.58557241  0.84248857  0.51075888     0.21500
C919        C  0.55619293  0.77371301  0.97463547    -0.53400
C920        C  0.55593074  0.79853659  0.51173783     0.10600
C921        C  0.53959496  0.84896544  0.94244460    -0.52900
C922        C  0.55292973  0.87674418  0.47595836     0.11200
H923        H  0.64083114  0.81135521  0.89074495     0.15700
H924        H  0.59788038  0.85456301  0.55369509     0.01400
H925        H  0.52996606  0.75066532  0.45030335     0.16000
H926        H  0.51278623  0.86493687  0.91459254     0.15800
C927        C  0.52490771  0.76376347  0.66799731     0.03400
C928        C  0.00498175  0.72304935  0.69403197     0.03400
C929        C  0.00634908  0.69893391  0.74691395    -0.17200
C930        C  0.01226076  0.72130193  0.80034539     0.03400
C931        C  0.53963696  0.75981508  0.77191191     0.03400
C932        C  0.54846603  0.77907651  0.71785662    -0.17200
H933        H  0.57366003  0.80686528  0.71472360     0.05400
H934        H  0.00263349  0.66293972  0.74651001     0.05400
C935        C  0.95333811  0.68374859  0.94647202     0.87600
C936        C  0.90286072  0.69994630  0.95655538    -0.52600
C937        C  0.87276001  0.68809375  0.50240782     0.10500
C938        C  0.90372074  0.65174137  0.53437814     0.21500
C939        C  0.97904504  0.69227375  0.00562898    -0.53400
C940        C  0.95017349  0.67710365  0.55203234     0.10600
C941        C  0.94833111  0.63375522  0.94186002    -0.52900
C942        C  0.92175858  0.61899738  0.48690267     0.11200
H943        H  0.88736212  0.72651810  0.93006692     0.15700
H944        H  0.88444717  0.63501894  0.57056623     0.01400
H945        H  0.00657183  0.71650502  0.50964415     0.16000
H946        H  0.96582965  0.61614552  0.90694423     0.15800
O947        O  0.56711126  0.54156200  0.94853111    -0.70700
O948        O  0.95006050  0.96588337  0.95058161    -0.70900
O949        O  0.95841387  0.54431365  0.95438141    -0.70700
O950        O  0.53012433  0.93659709  0.95887207    -0.70800
O951        O  0.52701645  0.93886693  0.53781576    -0.70700
O952        O  0.95676250  0.55692640  0.54260376    -0.70700
O953        O  0.94460949  0.96753493  0.54961694    -0.70700
O954        O  0.55954614  0.53431244  0.54548623    -0.70900
V955        V  0.49333292  0.98870109  0.96118037     1.35200
V956        V  0.49612192  0.99697457  0.54160597     1.35200
C957        C  0.58899447  0.54815433  0.99634452     0.78600
C958        C  0.92940999  0.95661499  0.99815714     0.78600
C959        C  0.94749569  0.56624643  0.99873676     0.78500
C960        C  0.53804725  0.91329825  0.00366482     0.78500
C961        C  0.97044928  0.70597972  0.89039870    -0.15300
C962        C  0.00795696  0.69599865  0.85643217    -0.30500
H963        H  0.94581952  0.72998527  0.87078041     0.13700
H964        H  0.03184936  0.66847477  0.86693046     0.14300
C965        C  0.00266919  0.70049322  0.63645424    -0.15300
C966        C  0.96068711  0.68486231  0.61496384    -0.30500
H967        H  0.47657542  0.66885885  0.61743308     0.13700
H968        H  0.93061749  0.68073519  0.64447362     0.14300
C969        C  0.54178282  0.78981566  0.86968684    -0.15300
C970        C  0.56579020  0.77812834  0.82222030    -0.30500
H971        H  0.50265459  0.78673948  0.86966560     0.13700
H972        H  0.60435461  0.78292495  0.81830426     0.14300
C973        C  0.54550183  0.77094222  0.56361296    -0.15300
C974        C  0.53475354  0.78955155  0.61418414    -0.30500
H975        H  0.54449694  0.73491429  0.55918869     0.13700
H976        H  0.97525579  0.78615529  0.61117965     0.14100
C977        C  0.77408102  0.97694312  0.87715758    -0.15300
C978        C  0.79193232  0.93640736  0.88987990    -0.30500
H979        H  0.77041376  0.00040011  0.91200066     0.13700
H980        H  0.79881042  0.91211170  0.85646687     0.14300
C981        C  0.77025334  0.95454935  0.61913280    -0.15300
C982        C  0.79225480  0.97325206  0.66499539    -0.30500
H983        H  0.73111404  0.95129713  0.61888909     0.13700
H984        H  0.82865195  0.45718804  0.66737345     0.14300
C985        C  0.70323256  0.54525644  0.85906558    -0.15300
C986        C  0.72971667  0.57273992  0.89177827    -0.30500
H987        H  0.66764137  0.53421463  0.87286493     0.13700
H988        H  0.76673022  0.58045009  0.87967547     0.14300
C989        C  0.73626464  0.54445727  0.59873640    -0.15300
C990        C  0.71408761  0.54157357  0.65006497    -0.30500
H991        H  0.77338551  0.53422459  0.59326318     0.13700
H992        H  0.67822721  0.55606252  0.65292797     0.14300
loop_ 
_geom_bond_atom_site_label_1 
_geom_bond_atom_site_label_2 
_geom_bond_distance 
_geom_bond_site_symmetry_2 
_ccdc_geom_bond_type 
O1            V9   1.950       .  S
O1          C135   1.275       .  A
O2            V9   1.950       .  S
O2          C136   1.275       .  A
O3            V9   1.846       .  S
O3           C13   1.255       .  A
O4            V9   1.841       .  S
O4           C14   1.258       .  A
O5           V10   1.962       .  S
O5          C138   1.276   1_554  A
O6           V10   1.959       .  S
O6          C137   1.277   1_554  A
O7           V10   1.869       .  S
O7           C12   1.259       .  A
O8           V10   1.875       .  S
O8           C11   1.261       .  A
V9          V134   2.076       .  T
V10         V133   2.074   1_554  T
C11         O125   1.274   1_554  A
C11         C166   1.506       .  S
C12         O126   1.274   1_554  A
C12         C146   1.492       .  S
C13         O130   1.276       .  A
C13         C173   1.490       .  S
C14         O129   1.278       .  A
C14         C193   1.515       .  S
C15          C16   1.513       .  S
C15          C21   1.506       .  S
C15          C19   1.528   1_554  S
C15         C121   1.508       .  S
C16          H23   1.088       .  S
C16         C141   1.358       .  D
C17          C89   1.498       .  S
C17          C18   1.568       .  S
C17         C140   1.369       .  D
C18          C22   1.565       .  S
C18          C20   1.541       .  S
C18          H24   1.110       .  S
C19         H149   1.083       .  S
C19         C144   1.379       .  D
C20         C143   1.365       .  D
C20         C118   1.465       .  S
C21          H26   1.088       .  S
C21         C146   1.367       .  D
C22         C136   1.495       .  S
C22         C145   1.371       .  D
H25         C143   1.087       .  S
C27         C122   1.479       .  S
C27          C32   1.403       .  A
C27         C276   1.426   1_545  A
C28         C114   1.484       .  S
C28          C29   1.399       .  A
C28         C275   1.422       .  A
C29          C30   1.390       .  A
C29          H34   1.086       .  S
C30         C109   1.471       .  S
C30         C279   1.414       .  A
C31         C117   1.473       .  S
C31          C32   1.388       .  A
C31         C278   1.406   1_545  A
C32          H33   1.086       .  S
C35          C36   1.512       .  S
C35          C41   1.508       .  S
C35          C39   1.527   1_554  S
C35         C113   1.506       .  S
C36          H43   1.087       .  S
C36         C161   1.363       .  D
C37          C90   1.505       .  S
C37          C38   1.576       .  S
C37         C160   1.363       .  D
C38          C42   1.574       .  S
C38          C40   1.539       .  S
C38          H44   1.110       .  S
C39         H169   1.081       .  S
C39         C164   1.372       .  D
C40         C163   1.360       .  D
C40         C110   1.462       .  S
C41          H46   1.088       .  S
C41         C166   1.370       .  D
C42         C135   1.506       .  S
C42         C165   1.371       .  D
H45         C163   1.087       .  S
C47          C48   1.502       .  S
C47          C53   1.504       .  S
C47          C51   1.548       .  S
C47         C101   1.518       .  S
C48          H55   1.081       .  S
C48         C173   1.363       .  D
C49         C137   1.511       .  S
C49          C50   1.576   1_556  S
C49         C172   1.379       .  D
C50          C54   1.578       .  S
C50          C52   1.542       .  S
C50          H56   1.110       .  S
C51         H181   1.079   1_455  S
C51         C176   1.384       .  D
C52         C175   1.363   1_554  D
C52         C105   1.473       .  S
C53          H58   1.089       .  S
C53         C178   1.364       .  D
C54         C216   1.489       .  S
C54         C177   1.354   1_554  D
H57         C175   1.079       .  S
C59         C106   1.486       .  S
C59          C64   1.398       .  A
C59         C556   1.422   1_455  A
C60          C97   1.466       .  S
C60          C61   1.393       .  A
C60         C555   1.404       .  A
C61          C62   1.398       .  A
C61          H66   1.085       .  S
C62          C94   1.481       .  S
C62         C559   1.426       .  A
C63         C102   1.476       .  S
C63          C64   1.400       .  A
C63         C558   1.416   1_455  A
C64          H65   1.085       .  S
C67          C68   1.509       .  S
C67          C73   1.511       .  S
C67          C71   1.539       .  S
C67          C93   1.509       .  S
C68          H75   1.089       .  S
C68         C193   1.371       .  D
C69         C138   1.507       .  S
C69          C70   1.568   1_556  S
C69         C192   1.359       .  D
C70          C74   1.578   1_554  S
C70          C72   1.529       .  S
C70          H76   1.110       .  S
C71         H201   1.080       .  S
C71         C196   1.365       .  D
C72         C195   1.375       .  D
C72          C98   1.473       .  S
C73          H78   1.084       .  S
C73         C198   1.365       .  D
C74         C215   1.484   1_556  S
C74         C197   1.368       .  D
H77         C195   1.082       .  S
O79         V335   1.950       .  S
O79          C89   1.275       .  A
O80         V583   1.945       .  S
O80          C90   1.272       .  A
O81         V831   1.885       .  S
O81          C91   1.265       .  A
O82          V87   1.861   1_455  S
O82          C92   1.260       .  A
O83          V88   1.941   1_455  S
O83         C216   1.270       .  A
O84         V832   1.943   1_545  S
O84         C215   1.273       .  A
O85         V584   1.880       .  S
O85         C214   1.264   1_554  A
O86         V336   1.881       .  S
O86         C213   1.265   1_554  A
V87         O327   1.948   1_655  S
V87         O576   1.954       .  S
V87         O825   1.867       .  S
V87         V212   2.080       .  T
V88         O828   1.943       .  S
V88         O581   1.884       .  S
V88         O334   1.884   1_655  S
V88         V211   2.079   1_554  T
C89         O210   1.260       .  A
C90         O209   1.266       .  A
C91         O208   1.271       .  A
C91         C198   1.499       .  S
C92         O207   1.272       .  A
C92         C178   1.497       .  S
C93          H95   1.087       .  S
C93          C94   1.342       .  D
C94          H96   1.081       .  S
C97         H595   1.085       .  S
C97          C98   1.335       .  D
C98         H100   1.087       .  S
H99         C593   1.083       .  S
C101        H103   1.088   1_455  S
C101        C102   1.351       .  D
C102        H104   1.078       .  S
C105        H107   1.087       .  S
C105        C106   1.342       .  D
C106        H604   1.087       .  S
H108        C602   1.085       .  S
C109        H111   1.086       .  S
C109        C110   1.337       .  D
C110        H112   1.088       .  S
C113        H115   1.081       .  S
C113        C114   1.342       .  D
C114        H364   1.088       .  S
H116        C362   1.087       .  S
C117        H119   1.087       .  S
C117        C118   1.337       .  D
C118        H120   1.087       .  S
C121        H123   1.082       .  S
C121        C122   1.344       .  D
C122        H124   1.090       .  S
O125        V133   1.952       .  S
O126        V133   1.946       .  S
O127        V133   1.858       .  S
O127        C137   1.259       .  A
O128        V133   1.856       .  S
O128        C138   1.260       .  A
O129        V134   1.965       .  S
O130        V134   1.956       .  S
O131        V134   1.866       .  S
O131        C136   1.257       .  A
O132        V134   1.882       .  S
O132        C135   1.262       .  A
C139        C140   1.520       .  S
C139        C145   1.506       .  S
C139        C143   1.531       .  S
C139        C245   1.511       .  S
C140        H147   1.087       .  S
C141        C213   1.495   1_554  S
C141        C142   1.570   1_554  S
C142        C146   1.565   1_556  S
C142        C144   1.544       .  S
C142        H148   1.110       .  S
C144        C242   1.481       .  S
C145        H150   1.088       .  S
C151        C246   1.486       .  S
C151        C400   1.427   1_545  A
C151        C156   1.406       .  A
C152        C238   1.471       .  S
C152        C399   1.425       .  A
C152        C153   1.397       .  A
C153        C154   1.396       .  A
C153        H158   1.084       .  S
C154        C233   1.484       .  S
C154        C403   1.414       .  A
C155        C241   1.479       .  S
C155        C402   1.409   1_545  A
C155        C156   1.403       .  A
C156        H157   1.084       .  S
C159        C160   1.523       .  S
C159        C165   1.511       .  S
C159        C163   1.527       .  S
C159        C237   1.503       .  S
C160        H167   1.087       .  S
C161        C214   1.507   1_554  S
C161        C162   1.579   1_554  S
C162        C166   1.573   1_556  S
C162        C164   1.545       .  S
C162        H168   1.110       .  S
C164        C234   1.482       .  S
C165        H170   1.088       .  S
C171        C172   1.516       .  S
C171        C177   1.491       .  S
C171        C175   1.530       .  S
C171        C225   1.500       .  S
C172        H179   1.083       .  S
C173        C174   1.567       .  S
C174        C178   1.564       .  S
C174        C176   1.530       .  S
C174        H180   1.111       .  S
C176        C229   1.485       .  S
C177        H182   1.090       .  S
C183        C230   1.487       .  S
C183        C680   1.406   1_455  A
C183        C188   1.400       .  A
C184        C221   1.486       .  S
C184        C679   1.418       .  A
C184        C185   1.397       .  A
C185        C186   1.402       .  A
C185        H190   1.085       .  S
C186        C218   1.486       .  S
C186        C683   1.421       .  A
C187        C226   1.477       .  S
C187        C682   1.418   1_455  A
C187        C188   1.404       .  A
C188        H189   1.084       .  S
C191        C192   1.504       .  S
C191        C197   1.501       .  S
C191        C195   1.534   1_556  S
C191        C217   1.498       .  S
C192        H199   1.089       .  S
C193        C194   1.570       .  S
C194        C198   1.585       .  S
C194        C196   1.532       .  S
C194        H200   1.110       .  S
C196        C222   1.473       .  S
C197        H202   1.085       .  S
O203        V459   1.941       .  S
O203        C213   1.270       .  A
O204        V707   1.955       .  S
O204        C214   1.274       .  A
O205        V955   1.868   1_545  S
O205        C215   1.258   1_556  A
O206        V211   1.872   1_455  S
O206        C216   1.263   1_556  A
O207        V212   1.944   1_455  S
O208        V956   1.945   1_545  S
O209        V708   1.895       .  S
O210        V460   1.877       .  S
V211        O451   1.944   1_655  S
V211        O700   1.954       .  S
V211        O949   1.879       .  S
V212        O952   1.942       .  S
V212        O705   1.881       .  S
V212        O458   1.872   1_655  S
C217        H219   1.073       .  S
C217        C218   1.337       .  D
C218        H220   1.084       .  S
C221        H719   1.087       .  S
C221        C222   1.341       .  D
C222        H224   1.086       .  S
H223        C717   1.086   1_455  S
C225        H227   1.075   1_455  S
C225        C226   1.337       .  D
C226        H228   1.082       .  S
C229        H231   1.086       .  S
C229        C230   1.337       .  D
C230        H728   1.084   1_455  S
H232        C726   1.081       .  S
C233        H235   1.082       .  S
C233        C234   1.348       .  D
C234        H236   1.084       .  S
C237        H239   1.087       .  S
C237        C238   1.336       .  D
C238        H488   1.087       .  S
H240        C486   1.090       .  S
C241        H243   1.083       .  S
C241        C242   1.341       .  D
C242        H244   1.085       .  S
C245        H247   1.085       .  S
C245        C246   1.345       .  D
C246        H248   1.087       .  S
O249        V257   1.942       .  S
O249        C383   1.273       .  A
O250        V257   1.945       .  S
O250        C384   1.273       .  A
O251        V257   1.859       .  S
O251        C261   1.259       .  A
O252        V257   1.860       .  S
O252        C262   1.260       .  A
O253        V258   1.971       .  S
O253        C386   1.280   1_554  A
O254        V258   1.963       .  S
O254        C385   1.278       .  A
O255        V258   1.860       .  S
O255        C260   1.256       .  A
O256        V258   1.869       .  S
O256        C259   1.256       .  A
V257        V382   2.076       .  T
V258        V381   2.070   1_554  T
C259        O373   1.277   1_554  A
C259        C414   1.490       .  S
C260        O374   1.276   1_554  A
C260        C394   1.497       .  S
C261        O378   1.273       .  A
C261        C421   1.491       .  S
C262        O377   1.274       .  A
C262        C441   1.503       .  S
C263        C264   1.523       .  S
C263        C269   1.503       .  S
C263        C267   1.523       .  S
C263        C369   1.508       .  S
C264        H271   1.084       .  S
C264        C389   1.367       .  D
C265        C337   1.496       .  S
C265        C266   1.569       .  S
C265        C388   1.363       .  D
C266        C270   1.565       .  S
C266        C268   1.549       .  S
C266        H272   1.110       .  S
C267        H397   1.084       .  S
C267        C392   1.360   1_554  D
C268        C391   1.375       .  D
C268        C366   1.483       .  S
C269        H274   1.088       .  S
C269        C394   1.372       .  D
C270        C384   1.490       .  S
C270        C393   1.368       .  D
H273        C391   1.082       .  S
C275        C370   1.466       .  S
C275        C280   1.399       .  A
C276        C362   1.476       .  S
C276        C277   1.399       .  A
C277        C278   1.399       .  A
C277        H282   1.085       .  S
C278        C357   1.475       .  S
C279        C365   1.486       .  S
C279        C280   1.398       .  A
C280        H281   1.083       .  S
C283        C284   1.525       .  S
C283        C289   1.511       .  S
C283        C287   1.523       .  S
C283        C361   1.511       .  S
C284        H291   1.086       .  S
C284        C409   1.367       .  D
C285        C338   1.492       .  S
C285        C286   1.570       .  S
C285        C408   1.355       .  D
C286        C290   1.562       .  S
C286        C288   1.541       .  S
C286        H292   1.110       .  S
C287        H417   1.086   1_554  S
C287        C412   1.360   1_554  D
C288        C411   1.375       .  D
C288        C358   1.473       .  S
C289        H294   1.088       .  S
C289        C414   1.372       .  D
C290        C383   1.492       .  S
C290        C413   1.366       .  D
H293        C411   1.083       .  S
C295        C296   1.500       .  S
C295        C301   1.500       .  S
C295        C299   1.540       .  S
C295        C349   1.502       .  S
C296        H303   1.088       .  S
C296        C421   1.362       .  D
C297        C385   1.496       .  S
C297        C298   1.569       .  S
C297        C420   1.363   1_554  D
C298        C302   1.567   1_554  S
C298        C300   1.539       .  S
C298        H304   1.110       .  S
C299        H429   1.082   1_455  S
C299        C424   1.381       .  D
C300        C423   1.384       .  D
C300        C353   1.486       .  S
C301        H306   1.089       .  S
C301        C426   1.365       .  D
C302        C464   1.492       .  S
C302        C425   1.362       .  D
H305        C423   1.083   1_655  S
C307        C354   1.481       .  S
C307        C804   1.410       .  A
C307        C312   1.399       .  A
C308        C345   1.486       .  S
C308        C803   1.423       .  A
C308        C309   1.402       .  A
C309        C310   1.399       .  A
C309        H314   1.085       .  S
C310        C342   1.480       .  S
C310        C807   1.412       .  A
C311        C350   1.482       .  S
C311        C806   1.421       .  A
C311        C312   1.402       .  A
C312        H313   1.084       .  S
C315        C316   1.514       .  S
C315        C321   1.511       .  S
C315        C319   1.534       .  S
C315        C341   1.503       .  S
C316        H323   1.087       .  S
C316        C441   1.376       .  D
C317        C386   1.519       .  S
C317        C318   1.574   1_556  S
C317        C440   1.376       .  D
C318        C322   1.582   1_554  S
C318        C320   1.541       .  S
C318        H324   1.110       .  S
C319        H449   1.080       .  S
C319        C444   1.355       .  D
C320        C443   1.368   1_554  D
C320        C346   1.477       .  S
C321        H326   1.087       .  S
C321        C446   1.360       .  D
C322        C463   1.505       .  S
C322        C445   1.364       .  D
H325        C443   1.081       .  S
O327        C337   1.273       .  A
O328        V831   1.937   1_565  S
O328        C338   1.269       .  A
O329        V583   1.884       .  S
O329        C339   1.265       .  A
O330        V335   1.858   1_565  S
O330        C340   1.258       .  A
O331        V336   1.935   1_565  S
O331        C464   1.270   1_554  A
O332        V584   1.959       .  S
O332        C463   1.275   1_554  A
O333        V832   1.886       .  S
O333        C462   1.264       .  A
O334        C461   1.264       .  A
V335        O824   1.959   1_445  S
V335        O577   1.861   1_455  S
V335        V460   2.079       .  T
V336        O580   1.937   1_455  S
V336        O829   1.882   1_445  S
V336        V459   2.080   1_554  T
C337        O458   1.261       .  A
C338        O457   1.265       .  A
C339        O456   1.270       .  A
C339        C446   1.495       .  S
C340        O455   1.273       .  A
C340        C426   1.491       .  S
C341        H343   1.084       .  S
C341        C342   1.345       .  D
C342        H344   1.086       .  S
C345        H843   1.087       .  S
C345        C346   1.341       .  D
C346        H348   1.084       .  S
H347        C841   1.085       .  S
C349        H351   1.076   1_455  S
C349        C350   1.350       .  D
C350        H352   1.087       .  S
C353        H355   1.087       .  S
C353        C354   1.339       .  D
C354        H852   1.083   1_455  S
H356        C850   1.088       .  S
C357        H359   1.083       .  S
C357        C358   1.341       .  D
C358        H360   1.086       .  S
C361        H363   1.087       .  S
C361        C362   1.340       .  D
C365        H367   1.083       .  S
C365        C366   1.348       .  D
C366        H368   1.083       .  S
C369        H371   1.088       .  S
C369        C370   1.336       .  D
C370        H372   1.082       .  S
O373        V381   1.950       .  S
O374        V381   1.956       .  S
O375        V381   1.849       .  S
O375        C385   1.256   1_556  A
O376        V381   1.850       .  S
O376        C386   1.258       .  A
O377        V382   1.949       .  S
O378        V382   1.949       .  S
O379        V382   1.862       .  S
O379        C384   1.258       .  A
O380        V382   1.875       .  S
O380        C383   1.260       .  A
C387        C388   1.513       .  S
C387        C393   1.502       .  S
C387        C391   1.524       .  S
C387        C493   1.506       .  S
C388        H395   1.088       .  S
C389        C461   1.500       .  S
C389        C390   1.571   1_554  S
C390        C394   1.567   1_556  S
C390        C392   1.541       .  S
C390        H396   1.110       .  S
C392        C490   1.462       .  S
C393        H398   1.088       .  S
C399        C494   1.482       .  S
C399        C404   1.401       .  A
C400        C486   1.470       .  S
C400        C401   1.397       .  A
C401        C402   1.381       .  A
C401        H406   1.087       .  S
C402        C481   1.471       .  S
C403        C489   1.474       .  S
C403        C404   1.390       .  A
C404        H405   1.086       .  S
C407        C408   1.517       .  S
C407        C413   1.510       .  S
C407        C411   1.526       .  S
C407        C485   1.501       .  S
C408        H415   1.088       .  S
C409        C462   1.502       .  S
C409        C410   1.567   1_554  S
C410        C414   1.563   1_556  S
C410        C412   1.546       .  S
C410        H416   1.110       .  S
C412        C482   1.462       .  S
C413        H418   1.088       .  S
C419        C420   1.503       .  S
C419        C425   1.506       .  S
C419        C423   1.541   1_556  S
C419        C473   1.507       .  S
C420        H427   1.088       .  S
C421        C422   1.572       .  S
C422        C426   1.564       .  S
C422        C424   1.540       .  S
C422        H428   1.110       .  S
C424        C477   1.487       .  S
C425        H430   1.089       .  S
C431        C478   1.480       .  S
C431        C928   1.410       .  A
C431        C436   1.400       .  A
C432        C469   1.475       .  S
C432        C927   1.426       .  A
C432        C433   1.399       .  A
C433        C434   1.398       .  A
C433        H438   1.085       .  S
C434        C466   1.480       .  S
C434        C931   1.411       .  A
C435        C474   1.482       .  S
C435        C930   1.422       .  A
C435        C436   1.403       .  A
C436        H437   1.085       .  S
C439        C440   1.510       .  S
C439        C445   1.498       .  S
C439        C443   1.537       .  S
C439        C465   1.510       .  S
C440        H447   1.087       .  S
C441        C442   1.567       .  S
C442        C446   1.574       .  S
C442        C444   1.542       .  S
C442        H448   1.110       .  S
C444        C470   1.469       .  S
C445        H450   1.088       .  S
O451        C461   1.272   1_556  A
O452        V955   1.946       .  S
O452        C462   1.273   1_556  A
O453        V707   1.867       .  S
O453        C463   1.261       .  A
O454        V459   1.878   1_565  S
O454        C464   1.263       .  A
O455        V460   1.946   1_565  S
O456        V708   1.941       .  S
O457        V956   1.886       .  S
V459        O948   1.947   1_445  S
V459        O701   1.876   1_455  S
V460        O704   1.949   1_455  S
V460        O953   1.874   1_445  S
C465        H467   1.087       .  S
C465        C466   1.343       .  D
C466        H468   1.087       .  S
C469        H967   1.088       .  S
C469        C470   1.334       .  D
C470        H472   1.087       .  S
H471        C965   1.086       .  S
C473        H475   1.078   1_455  S
C473        C474   1.354       .  D
C474        H476   1.087       .  S
C477        H479   1.087       .  S
C477        C478   1.341       .  D
C478        H976   1.083   1_455  S
H480        C974   1.087       .  S
C481        H483   1.086       .  S
C481        C482   1.334       .  D
C482        H484   1.088       .  S
C485        H487   1.084       .  S
C485        C486   1.338       .  D
C489        H491   1.087       .  S
C489        C490   1.335       .  D
C490        H492   1.088       .  S
C493        H495   1.082       .  S
C493        C494   1.342       .  D
C494        H496   1.088       .  S
O497        V505   1.959       .  S
O497        C631   1.277       .  A
O498        V505   1.957       .  S
O498        C632   1.276       .  A
O499        V505   1.852       .  S
O499        C509   1.258       .  A
O500        V505   1.848       .  S
O500        C510   1.256       .  A
O501        V506   1.961       .  S
O501        C634   1.277   1_554  A
O502        V506   1.960       .  S
O502        C633   1.276       .  A
O503        V506   1.870       .  S
O503        C508   1.260       .  A
O504        V506   1.873       .  S
O504        C507   1.260       .  A
V505        V630   2.076       .  T
V506        V629   2.077   1_554  T
C507        O621   1.277   1_554  A
C507        C662   1.506       .  S
C508        O622   1.276   1_554  A
C508        C642   1.510       .  S
C509        O626   1.276       .  A
C509        C669   1.505       .  S
C510        O625   1.276       .  A
C510        C689   1.498       .  S
C511        C512   1.516       .  S
C511        C517   1.508       .  S
C511        C515   1.529       .  S
C511        C617   1.501       .  S
C512        H519   1.087       .  S
C512        C637   1.366       .  D
C513        C585   1.500       .  S
C513        C514   1.579       .  S
C513        C636   1.357       .  D
C514        C518   1.573       .  S
C514        C516   1.547       .  S
C514        H520   1.110       .  S
C515        H645   1.086   1_554  S
C515        C640   1.362   1_554  D
C516        C639   1.375       .  D
C516        C614   1.484       .  S
C517        H522   1.088       .  S
C517        C642   1.371       .  D
C518        C632   1.509       .  S
C518        C641   1.370       .  D
H521        C639   1.081       .  S
C523        C618   1.474       .  S
C523        C772   1.425   1_545  A
C523        C528   1.401       .  A
C524        C610   1.476       .  S
C524        C771   1.425       .  A
C524        C525   1.399       .  A
C525        C526   1.384       .  A
C525        H530   1.086       .  S
C526        C605   1.474       .  S
C526        C775   1.410       .  A
C527        C613   1.484       .  S
C527        C774   1.413   1_545  A
C527        C528   1.399       .  A
C528        H529   1.083       .  S
C531        C532   1.511       .  S
C531        C537   1.507       .  S
C531        C535   1.522   1_554  S
C531        C609   1.506       .  S
C532        H539   1.088       .  S
C532        C657   1.358       .  D
C533        C586   1.508       .  S
C533        C534   1.578       .  S
C533        C656   1.364       .  D
C534        C538   1.576       .  S
C534        C536   1.546       .  S
C534        H540   1.110       .  S
C535        H665   1.086       .  S
C535        C660   1.375       .  D
C536        C659   1.360       .  D
C536        C606   1.467       .  S
C537        H542   1.088       .  S
C537        C662   1.368       .  D
C538        C631   1.508       .  S
C538        C661   1.374       .  D
H541        C659   1.086       .  S
C543        C544   1.504       .  S
C543        C549   1.507       .  S
C543        C547   1.543       .  S
C543        C597   1.514       .  S
C544        H551   1.089       .  S
C544        C669   1.368       .  D
C545        C633   1.498       .  S
C545        C546   1.573       .  S
C545        C668   1.361   1_554  D
C546        C550   1.566   1_554  S
C546        C548   1.536       .  S
C546        H552   1.110       .  S
C547        H677   1.077       .  S
C547        C672   1.372       .  D
C548        C671   1.388       .  D
C548        C601   1.494       .  S
C549        H554   1.085       .  S
C549        C674   1.364       .  D
C550        C712   1.499       .  S
C550        C673   1.365       .  D
H553        C671   1.083       .  S
C555        C602   1.490       .  S
C555        C560   1.405       .  A
C556        C593   1.510       .  S
C556        C557   1.419       .  A
C557        C558   1.415       .  A
C557        H562   1.081       .  S
C558        C590   1.500       .  S
C559        C598   1.495       .  S
C559        C560   1.415       .  A
C560        H561   1.084       .  S
C563        C564   1.495       .  S
C563        C569   1.501       .  S
C563        C567   1.544       .  S
C563        C589   1.511       .  S
C564        H571   1.089       .  S
C564        C689   1.364       .  D
C565        C634   1.507       .  S
C565        C566   1.569   1_556  S
C565        C688   1.371       .  D
C566        C570   1.573   1_554  S
C566        C568   1.536       .  S
C566        H572   1.110       .  S
C567        H697   1.078       .  S
C567        C692   1.379       .  D
C568        C691   1.381   1_554  D
C568        C594   1.501       .  S
C569        H574   1.086       .  S
C569        C694   1.371       .  D
C570        C711   1.489       .  S
C570        C693   1.360       .  D
H573        C691   1.076   1_554  S
O575        V831   1.941       .  S
O575        C585   1.269       .  A
O576        C586   1.274       .  A
O577        C587   1.256       .  A
O578        V583   1.880       .  S
O578        C588   1.263       .  A
O579        V584   1.952       .  S
O579        C712   1.275   1_554  A
O580        C711   1.269   1_554  A
O581        C710   1.266       .  A
O582        V832   1.891   1_545  S
O582        C709   1.266       .  A
V583        O823   1.944       .  S
V583        V708   2.080       .  T
V584        O830   1.877       .  S
V584        V707   2.076   1_554  T
C585        O706   1.267       .  A
C586        O705   1.264       .  A
C587        O704   1.275       .  A
C587        C694   1.488       .  S
C588        O703   1.271       .  A
C588        C674   1.492       .  S
C589        H591   1.073       .  S
C589        C590   1.352       .  D
C590        H592   1.084       .  S
C593        C594   1.349       .  D
C594        H596   1.083       .  S
C597        H599   1.084       .  S
C597        C598   1.353       .  D
C598        H600   1.082       .  S
C601        H603   1.087       .  S
C601        C602   1.339       .  D
C605        H607   1.086       .  S
C605        C606   1.335       .  D
C606        H608   1.088       .  S
C609        H611   1.083       .  S
C609        C610   1.341       .  D
C610        H860   1.089       .  S
H612        C858   1.088       .  S
C613        H615   1.082       .  S
C613        C614   1.347       .  D
C614        H616   1.084       .  S
C617        H619   1.086       .  S
C617        C618   1.336       .  D
C618        H620   1.087       .  S
O621        V629   1.958       .  S
O622        V629   1.956       .  S
O623        V629   1.854       .  S
O623        C633   1.257   1_556  A
O624        V629   1.856       .  S
O624        C634   1.258       .  A
O625        V630   1.959       .  S
O626        V630   1.959       .  S
O627        V630   1.875       .  S
O627        C632   1.261       .  A
O628        V630   1.869       .  S
O628        C631   1.259       .  A
C635        C636   1.511       .  S
C635        C641   1.509       .  S
C635        C639   1.525       .  S
C635        C741   1.504       .  S
C636        H643   1.088       .  S
C637        C709   1.508       .  S
C637        C638   1.584   1_554  S
C638        C642   1.573   1_556  S
C638        C640   1.536       .  S
C638        H644   1.110       .  S
C640        C738   1.463       .  S
C641        H646   1.088       .  S
C647        C742   1.478       .  S
C647        C896   1.423   1_545  A
C647        C652   1.400       .  A
C648        C734   1.472       .  S
C648        C895   1.424       .  A
C648        C649   1.401       .  A
C649        C650   1.398       .  A
C649        H654   1.083       .  S
C650        C729   1.478       .  S
C650        C899   1.411       .  A
C651        C737   1.474       .  S
C651        C898   1.412   1_545  A
C651        C652   1.387       .  A
C652        H653   1.086       .  S
C655        C656   1.517       .  S
C655        C661   1.506       .  S
C655        C659   1.525       .  S
C655        C733   1.507       .  S
C656        H663   1.086       .  S
C657        C710   1.509       .  S
C657        C658   1.584   1_554  S
C658        C662   1.575   1_556  S
C658        C660   1.543       .  S
C658        H664   1.110       .  S
C660        C730   1.475       .  S
C661        H666   1.088       .  S
C667        C668   1.503       .  S
C667        C673   1.501       .  S
C667        C671   1.555   1_556  S
C667        C721   1.523       .  S
C668        H675   1.086       .  S
C669        C670   1.570       .  S
C670        C674   1.580       .  S
C670        C672   1.530       .  S
C670        H676   1.110       .  S
C672        C725   1.486       .  S
C673        H678   1.089       .  S
C679        C726   1.488       .  S
C679        C684   1.410       .  A
C680        C717   1.476       .  S
C680        C681   1.403       .  A
C681        C682   1.405       .  A
C681        H686   1.084       .  S
C682        C714   1.484       .  S
C683        C722   1.486       .  S
C683        C684   1.410       .  A
C684        H685   1.084       .  S
C687        C688   1.507       .  S
C687        C693   1.506       .  S
C687        C691   1.552       .  S
C687        C713   1.525       .  S
C688        H695   1.088       .  S
C689        C690   1.567       .  S
C690        C694   1.574       .  S
C690        C692   1.527       .  S
C690        H696   1.111       .  S
C692        C718   1.481       .  S
C693        H698   1.082       .  S
O699        V955   1.952   1_545  S
O699        C709   1.274   1_556  A
O700        C710   1.273   1_556  A
O701        C711   1.263       .  A
O702        V707   1.864       .  S
O702        C712   1.259       .  A
O703        V708   1.942       .  S
O706        V956   1.886   1_545  S
V707        O947   1.943       .  S
V708        O954   1.886       .  S
C713        H715   1.088       .  S
C713        C714   1.353       .  D
C714        H716   1.080   1_655  S
C717        C718   1.334       .  D
C718        H720   1.086       .  S
C721        H723   1.086       .  S
C721        C722   1.358       .  D
C722        H724   1.083       .  S
C725        H727   1.086       .  S
C725        C726   1.345       .  D
C729        H731   1.080       .  S
C729        C730   1.343       .  D
C730        H732   1.084       .  S
C733        H735   1.087       .  S
C733        C734   1.339       .  D
C734        H984   1.086       .  S
H736        C982   1.083       .  S
C737        H739   1.087       .  S
C737        C738   1.335       .  D
C738        H740   1.087       .  S
C741        H743   1.083       .  S
C741        C742   1.343       .  D
C742        H744   1.088       .  S
O745        V753   1.962       .  S
O745        C879   1.278       .  A
O746        V753   1.953       .  S
O746        C880   1.276       .  A
O747        V753   1.853       .  S
O747        C757   1.257       .  A
O748        V753   1.848       .  S
O748        C758   1.256       .  A
O749        V754   1.961       .  S
O749        C882   1.276       .  A
O750        V754   1.961       .  S
O750        C881   1.278   1_554  A
O751        V754   1.866       .  S
O751        C756   1.257       .  A
O752        V754   1.863       .  S
O752        C755   1.259       .  A
V753        V878   2.077       .  T
V754        V877   2.078   1_554  T
C755        O869   1.275   1_554  A
C755        C910   1.504       .  S
C756        O870   1.273   1_554  A
C756        C890   1.487       .  S
C757        O874   1.278       .  A
C757        C917   1.508       .  S
C758        O873   1.277       .  A
C758        C937   1.501       .  S
C759        C760   1.518       .  S
C759        C765   1.514       .  S
C759        C763   1.528   1_554  S
C759        C865   1.507       .  S
C760        H767   1.087       .  S
C760        C885   1.364       .  D
C761        C833   1.501       .  S
C761        C762   1.577       .  S
C761        C884   1.359       .  D
C762        C766   1.568       .  S
C762        C764   1.548       .  S
C762        H768   1.110       .  S
C763        H893   1.087       .  S
C763        C888   1.365       .  D
C764        C887   1.375       .  D
C764        C862   1.480       .  S
C765        H770   1.088       .  S
C765        C890   1.373       .  D
C766        C880   1.499       .  S
C766        C889   1.368       .  D
H769        C887   1.082       .  S
C771        C866   1.477       .  S
C771        C776   1.402       .  A
C772        C858   1.479       .  S
C772        C773   1.398       .  A
C773        C774   1.387       .  A
C773        H778   1.086       .  S
C774        C853   1.472       .  S
C775        C861   1.476       .  S
C775        C776   1.399       .  A
C776        H777   1.085       .  S
C779        C780   1.512       .  S
C779        C785   1.503       .  S
C779        C783   1.526   1_554  S
C779        C857   1.504       .  S
C780        H787   1.088       .  S
C780        C905   1.362       .  D
C781        C834   1.508       .  S
C781        C782   1.575       .  S
C781        C904   1.367       .  D
C782        C786   1.572       .  S
C782        C784   1.542       .  S
C782        H788   1.110       .  S
C783        H913   1.086       .  S
C783        C908   1.374       .  D
C784        C907   1.362       .  D
C784        C854   1.462       .  S
C785        H790   1.088       .  S
C785        C910   1.369       .  D
C786        C879   1.508       .  S
C786        C909   1.375       .  D
H789        C907   1.085       .  S
C791        C792   1.509       .  S
C791        C797   1.502       .  S
C791        C795   1.529       .  S
C791        C845   1.502       .  S
C792        H799   1.087       .  S
C792        C917   1.378       .  D
C793        C881   1.512       .  S
C793        C794   1.567   1_556  S
C793        C916   1.379       .  D
C794        C798   1.579   1_554  S
C794        C796   1.544       .  S
C794        H800   1.110       .  S
C795        H925   1.080       .  S
C795        C920   1.361       .  D
C796        C919   1.356   1_554  D
C796        C849   1.462       .  S
C797        H802   1.088       .  S
C797        C922   1.361       .  D
C798        C960   1.500   1_556  S
C798        C921   1.360       .  D
H801        C919   1.083       .  S
C803        C850   1.467       .  S
C803        C808   1.392       .  A
C804        C841   1.500       .  S
C804        C805   1.416       .  A
C805        C806   1.419       .  A
C805        H810   1.083   1_455  S
C806        C838   1.500       .  S
C807        C846   1.471       .  S
C807        C808   1.393       .  A
C808        H809   1.086       .  S
C811        C812   1.504       .  S
C811        C817   1.504       .  S
C811        C815   1.559       .  S
C811        C837   1.528       .  S
C812        H819   1.089       .  S
C812        C937   1.359       .  D
C813        C882   1.501       .  S
C813        C814   1.567       .  S
C813        C936   1.354   1_554  D
C814        C818   1.570   1_554  S
C814        C816   1.543       .  S
C814        H820   1.110       .  S
C815        H945   1.083   1_655  S
C815        C940   1.393       .  D
C816        C939   1.395       .  D
C816        C842   1.503       .  S
C817        H822   1.087       .  S
C817        C942   1.366       .  D
C818        C959   1.498       .  S
C818        C941   1.369       .  D
H821        C939   1.084   1_455  S
O823        C833   1.270       .  A
O824        C834   1.276       .  A
O825        C835   1.260       .  A
O826        V831   1.883   1_565  S
O826        C836   1.266       .  A
O827        V832   1.952       .  S
O827        C960   1.273       .  A
O828        C959   1.272   1_554  A
O829        C958   1.265   1_554  A
O830        C957   1.261   1_554  A
V831        V956   2.080   1_545  T
V832        V955   2.077   1_554  T
C833        O954   1.266       .  A
C834        O953   1.261       .  A
C835        O952   1.272       .  A
C835        C942   1.493       .  S
C836        O951   1.271       .  A
C836        C922   1.505       .  S
C837        H839   1.088       .  S
C837        C838   1.347   1_655  D
C838        H840   1.085       .  S
C841        C842   1.342   1_455  D
C842        H844   1.086       .  S
C845        H847   1.088       .  S
C845        C846   1.338       .  D
C846        H848   1.086       .  S
C849        H851   1.087       .  S
C849        C850   1.330       .  D
C853        H855   1.087       .  S
C853        C854   1.335       .  D
C854        H856   1.088       .  S
C857        H859   1.083       .  S
C857        C858   1.341       .  D
C861        H863   1.083       .  S
C861        C862   1.345       .  D
C862        H864   1.086       .  S
C865        H867   1.086       .  S
C865        C866   1.341       .  D
C866        H868   1.088       .  S
O869        V877   1.954       .  S
O870        V877   1.940       .  S
O871        V877   1.857       .  S
O871        C881   1.258       .  A
O872        V877   1.853       .  S
O872        C882   1.258   1_556  A
O873        V878   1.965       .  S
O874        V878   1.961       .  S
O875        V878   1.872       .  S
O875        C880   1.259       .  A
O876        V878   1.860       .  S
O876        C879   1.257       .  A
C883        C884   1.515       .  S
C883        C889   1.508       .  S
C883        C887   1.522       .  S
C883        C989   1.506       .  S
C884        H891   1.088       .  S
C885        C957   1.492   1_554  S
C885        C886   1.563   1_554  S
C886        C890   1.557   1_556  S
C886        C888   1.540       .  S
C886        H892   1.110       .  S
C888        C986   1.460       .  S
C889        H894   1.088       .  S
C895        C990   1.479       .  S
C895        C900   1.398       .  A
C896        C982   1.475       .  S
C896        C897   1.401       .  A
C897        C898   1.399       .  A
C897        H902   1.084       .  S
C898        C977   1.478       .  S
C899        C985   1.469       .  S
C899        C900   1.384       .  A
C900        H901   1.086       .  S
C903        C904   1.517       .  S
C903        C909   1.507       .  S
C903        C907   1.526       .  S
C903        C981   1.514       .  S
C904        H911   1.084       .  S
C905        C958   1.500   1_554  S
C905        C906   1.580   1_554  S
C906        C910   1.571   1_556  S
C906        C908   1.540       .  S
C906        H912   1.110       .  S
C908        C978   1.478       .  S
C909        H914   1.087       .  S
C915        C916   1.524       .  S
C915        C921   1.498       .  S
C915        C919   1.526       .  S
C915        C969   1.500       .  S
C916        H923   1.082       .  S
C917        C918   1.570       .  S
C918        C922   1.582       .  S
C918        C920   1.548       .  S
C918        H924   1.110       .  S
C920        C973   1.480       .  S
C921        H926   1.089       .  S
C927        C974   1.485       .  S
C927        C932   1.399       .  A
C928        C965   1.499       .  S
C928        C929   1.415       .  A
C929        C930   1.418       .  A
C929        H934   1.083       .  S
C930        C962   1.502       .  S
C931        C970   1.473       .  S
C931        C932   1.395       .  A
C932        H933   1.086       .  S
C935        C936   1.503       .  S
C935        C941   1.509       .  S
C935        C939   1.559   1_556  S
C935        C961   1.530       .  S
C936        H943   1.088       .  S
C937        C938   1.567       .  S
C938        C942   1.565       .  S
C938        C940   1.544       .  S
C938        H944   1.110       .  S
C940        C966   1.501       .  S
C941        H946   1.087       .  S
O947        C957   1.272       .  A
O948        C958   1.272       .  A
O949        C959   1.262       .  A
O950        V955   1.871       .  S
O950        C960   1.262   1_556  A
O951        V956   1.948       .  S
C961        H963   1.088       .  S
C961        C962   1.344   1_655  D
C962        H964   1.085       .  S
C965        C966   1.344   1_455  D
C966        H968   1.087       .  S
C969        H971   1.087       .  S
C969        C970   1.338       .  D
C970        H972   1.081       .  S
C973        H975   1.086       .  S
C973        C974   1.336       .  D
C977        H979   1.079   1_565  S
C977        C978   1.344       .  D
C978        H980   1.085       .  S
C981        H983   1.087       .  S
C981        C982   1.343       .  D
C985        H987   1.087       .  S
C985        C986   1.335       .  D
C986        H988   1.087       .  S
C989        H991   1.083       .  S
C989        C990   1.342       .  D
C990        H992   1.089       .  S
