geometry optimzed in LAMMPS
_audit_creation_date              2020-11-30 
_audit_creation_method            'lammps2cif' 
_symmetry_space_group_name_H-M    'P1' 
_symmetry_Int_Tables_number       1 
_symmetry_cell_setting            triclinic 
loop_ 
_symmetry_equiv_pos_as_xyz 
  x,y,z 
_cell_length_a                    35.84443365 
_cell_length_b                    30.70564470097222 
_cell_length_c                    30.756953115117273 
_cell_angle_alpha                 89.20128201117505 
_cell_angle_beta                  109.11580813696462 
_cell_angle_gamma                 91.08378464873405 
loop_ 
_atom_site_label 
_atom_site_type_symbol 
_atom_site_fract_x 
_atom_site_fract_y 
_atom_site_fract_z 
_atom_site_charge 
C1          C  0.60900527  0.41387355  0.94910661    -0.01600
C2          C  0.91915957  0.39911508  0.08505960    -0.01600
O3          O  0.46901765  0.07800172  0.96343492    -0.72100
O4          O  0.46321914  0.95036500  0.99254381    -0.73100
O5          O  0.48045769  0.02876726  0.04468033    -0.61700
O6          O  0.45086614  0.00066619  0.91121971    -0.70100
O7          O  0.51393662  0.99356154  0.91746002    -0.69600
O8          O  0.54395275  0.02082102  0.05333440    -0.60900
O9          O  0.52657468  0.94411872  0.99969145    -0.73400
O10         O  0.53242424  0.07096755  0.97135215    -0.72200
Cu11       Cu  0.46371934  0.01456718  0.97774356     1.04600
Cu12       Cu  0.53148403  0.00713489  0.98571334     1.04300
C13         C  0.50186239  0.09459704  0.96307800     0.94100
C14         C  0.49406524  0.92715576  0.00047195     0.93300
C15         C  0.51661732  0.02962329  0.07000998     0.85400
C16         C  0.47730720  0.99280918  0.89309639     0.91700
O17         O  0.95601829  0.00522569  0.95935768    -0.72100
O18         O  0.00207414  0.97548565  0.09401558    -0.73100
O19         O  0.97514659  0.05311233  0.04225475    -0.61700
O20         O  0.98259298  0.92779834  0.01117074    -0.70100
O21         O  0.04301130  0.94004603  0.00840440    -0.69600
O22         O  0.03533195  0.06558629  0.03884988    -0.60900
O23         O  0.06229558  0.98821084  0.09083690    -0.73400
O24         O  0.01639463  0.01723326  0.95639242    -0.72200
Cu25       Cu  0.97684523  0.98997998  0.02682104     1.04600
Cu26       Cu  0.04135199  0.00325368  0.02354304     1.04300
C27         C  0.97898260  0.01598628  0.93667865     0.90500
C28         C  0.03954920  0.97668305  0.11348569     0.93300
C29         C  0.00403102  0.07921644  0.04509256     0.85400
C30         C  0.01392502  0.91408863  0.00512035     0.91700
C31         C  0.42021910  0.60593159  0.07068224    -0.01600
C32         C  0.10915821  0.60041657  0.96189536    -0.01600
C33         C  0.10658828  0.89282350  0.46092194    -0.01600
C34         C  0.42186816  0.88674024  0.55438599    -0.01600
O35         O  0.47602867  0.44929686  0.56191532    -0.72100
O36         O  0.44396018  0.47174171  0.42616914    -0.73100
O37         O  0.48516357  0.40427204  0.48588741    -0.61700
O38         O  0.43559694  0.51750127  0.50234527    -0.70100
O39         O  0.49281118  0.55148748  0.51165783    -0.69600
O40         O  0.54221725  0.43947179  0.49738276    -0.60900
O41         O  0.50106346  0.50599298  0.43540234    -0.73400
O42         O  0.53309325  0.48437722  0.57330725    -0.72200
Cu43       Cu  0.45819906  0.45952785  0.49376039     1.04600
Cu44       Cu  0.51925401  0.49658725  0.50472745     1.04300
C45         C  0.50929259  0.46282247  0.58903288     0.94100
C46         C  0.46734908  0.49218033  0.40918124     0.93300
C47         C  0.52176166  0.40426580  0.48943167     0.85400
C48         C  0.45663016  0.55245188  0.50945598     0.91700
O49         O  0.01194363  0.46128450  0.45856530    -0.72100
O50         O  0.05850825  0.47823359  0.59562552    -0.73100
O51         O  0.01015519  0.41300576  0.53762463    -0.61700
O52         O  0.05998565  0.52656117  0.51646456    -0.70100
O53         O  0.00624450  0.56164273  0.51577526    -0.69600
O54         O  0.95670429  0.44822513  0.53768662    -0.60900
O55         O  0.00507403  0.51363060  0.59542433    -0.73400
O56         O  0.95829156  0.49627558  0.45834350    -0.72200
Cu57       Cu  0.03701360  0.46854660  0.52711603     1.04600
Cu58       Cu  0.97971410  0.50614000  0.52681924     1.04300
C59         C  0.97775169  0.47622199  0.43682295     0.94100
C60         C  0.03929120  0.49867778  0.61714031     0.93300
C61         C  0.97547919  0.41271852  0.54090343     0.85400
C62         C  0.04091275  0.56195532  0.51252832     0.91700
C63         C  0.60025900  0.09128139  0.42098195    -0.01600
C64         C  0.91292590  0.07953808  0.58356068    -0.01600
C65         C  0.71434025  0.08621558  0.49225074     0.19600
C66         C  0.73830305  0.08697979  0.53866379    -0.18500
C67         C  0.77960949  0.08562722  0.55113741    -0.10800
C68         C  0.79825114  0.08342735  0.51731546     0.21800
C69         C  0.77431756  0.08300426  0.47092581    -0.20200
C70         C  0.73305957  0.08446499  0.45844510    -0.11000
C71         C  0.84227564  0.08429891  0.52867406    -0.15200
C72         C  0.86790918  0.07482898  0.57071757    -0.29000
C73         C  0.67045658  0.09070594  0.48035123    -0.03300
C74         C  0.64451072  0.08054998  0.43871505    -0.39800
H75         H  0.72499181  0.08927535  0.56552354     0.13000
H76         H  0.79660567  0.08766891  0.58728863     0.12600
H77         H  0.78767773  0.08214864  0.44398275     0.12000
H78         H  0.71629477  0.08564899  0.42220049     0.12300
H79         H  0.85415638  0.09347433  0.50151603     0.15000
H80         H  0.85625115  0.06382884  0.59741457     0.13800
H81         H  0.65959577  0.10310546  0.50664550     0.11500
H82         H  0.65604896  0.06429148  0.41479516     0.13500
C83         C  0.95704310  0.28962120  0.55905906     0.19600
C84         C  0.98011840  0.25244288  0.56261592    -0.18500
C85         C  0.96647592  0.21138705  0.57132950    -0.10800
C86         C  0.92897248  0.20624508  0.57628092     0.21800
C87         C  0.90593579  0.24333159  0.57324297    -0.20200
C88         C  0.91957292  0.28454818  0.56441827    -0.11000
C89         C  0.91395906  0.16289654  0.58622845    -0.15200
C90         C  0.92497784  0.12535287  0.57207222    -0.29000
C91         C  0.97386969  0.33249810  0.55034519    -0.03300
C92         C  0.95652058  0.37135816  0.54861215    -0.39800
H93         H  0.00919875  0.25517620  0.55909701     0.13000
H94         H  0.98579087  0.18396902  0.57509443     0.12600
H95         H  0.87709909  0.24034961  0.57734688     0.12000
H96         H  0.90052321  0.31189773  0.56194180     0.12300
H97         H  0.89237546  0.16214323  0.60401076     0.15000
H98         H  0.94323169  0.12769433  0.55004771     0.13800
H99         H  0.00262489  0.33199867  0.54562053     0.11500
H100        H  0.92788953  0.37362584  0.55306291     0.13500
C101        C  0.58018049  0.20762843  0.45763626     0.19600
C102        C  0.59669974  0.23567484  0.49485678    -0.18500
C103        C  0.57845882  0.27485687  0.49784200    -0.10800
C104        C  0.54289577  0.28651601  0.46385785     0.21800
C105        C  0.52609222  0.25830208  0.42688438    -0.20200
C106        C  0.54462162  0.21937114  0.42356305    -0.11000
C107        C  0.52203929  0.32697513  0.46731906    -0.15200
C108        C  0.54164496  0.36367915  0.48535001    -0.29000
C109        C  0.59782626  0.16409052  0.45847016    -0.03300
C110        C  0.59301063  0.14050850  0.42025529    -0.39800
H111        H  0.62344908  0.22687582  0.52208985     0.13000
H112        H  0.59156737  0.29525917  0.52754039     0.12600
H113        H  0.49844889  0.26629547  0.40068178     0.12000
H114        H  0.53009010  0.19777791  0.39531649     0.12300
H115        H  0.49000429  0.32710219  0.45295382     0.15000
H116        H  0.57370320  0.36461968  0.49636181     0.13800
H117        H  0.61167262  0.14966031  0.49196453     0.11500
H118        H  0.57929759  0.15625425  0.38722931     0.13500
C119        C  0.53793328  0.00705858  0.46665312     0.19600
C120        C  0.53937033  0.96284153  0.47900494    -0.18500
C121        C  0.50930810  0.94338357  0.49271829    -0.10800
C122        C  0.47679477  0.96771161  0.49430994     0.21800
C123        C  0.47467890  0.01158403  0.48066796    -0.20200
C124        C  0.50483592  0.03112950  0.46710011    -0.11000
C125        C  0.44427736  0.94736406  0.50841839    -0.15200
C126        C  0.45159536  0.91494074  0.53991486    -0.29000
C127        C  0.56948498  0.02604448  0.44974645    -0.03300
C128        C  0.57662196  0.06924319  0.44895187    -0.39800
H129        H  0.56374866  0.94315956  0.47775283     0.13000
H130        H  0.51121706  0.90897296  0.50105920     0.12600
H131        H  0.44960745  0.03083465  0.48054741     0.12000
H132        H  0.50134338  0.06472556  0.45574311     0.12300
H133        H  0.41464422  0.95967187  0.49312359     0.15000
H134        H  0.48229926  0.90637419  0.55690913     0.13800
H135        H  0.58551442  0.00421580  0.43496929     0.11500
H136        H  0.56154957  0.09014799  0.46575619     0.13500
C137        C  0.44611191  0.67535601  0.52904075     0.19600
C138        C  0.47408865  0.70946455  0.54167468    -0.18500
C139        C  0.46308333  0.75116750  0.54949971    -0.10800
C140        C  0.42355451  0.76006653  0.54445229     0.21800
C141        C  0.39546072  0.72605561  0.53231501    -0.20200
C142        C  0.40648850  0.68410645  0.52426830    -0.11000
C143        C  0.41165795  0.80437999  0.55304327    -0.15200
C144        C  0.42919282  0.84029960  0.54249591    -0.29000
C145        C  0.46023071  0.63178350  0.52126550    -0.03300
C146        C  0.43905379  0.59428130  0.51537082    -0.39800
H147        H  0.50483289  0.70376986  0.54594616     0.13000
H148        H  0.48580701  0.77624299  0.56032507     0.12600
H149        H  0.36490557  0.73212331  0.52845074     0.12000
H150        H  0.38377259  0.65903034  0.51405822     0.12300
H151        H  0.38846991  0.80739085  0.56822774     0.15000
H152        H  0.45056315  0.83571415  0.52474689     0.13800
H153        H  0.49058124  0.63049180  0.52144730     0.11500
H154        H  0.40883933  0.59366919  0.51548732     0.13500
C155        C  0.02920687  0.95796167  0.50008215     0.19600
C156        C  0.98768855  0.95635177  0.48681735    -0.18500
C157        C  0.96713704  0.98367179  0.50698348    -0.10800
C158        C  0.98775520  0.01356188  0.54099659     0.21800
C159        C  0.02924085  0.01518449  0.55414886    -0.20200
C160        C  0.04974473  0.98789837  0.53403993    -0.11000
C161        C  0.96804389  0.04408260  0.56371470    -0.15200
C162        C  0.92874815  0.04659558  0.55689407    -0.29000
C163        C  0.04926812  0.92904971  0.47619015    -0.03300
C164        C  0.08874486  0.92224259  0.48873446    -0.39800
H165        H  0.97096194  0.93385400  0.46051323     0.13000
H166        H  0.93529265  0.98126395  0.49548184     0.12600
H167        H  0.04601748  0.03798860  0.58006640     0.12000
H168        H  0.08155166  0.99113261  0.54485500     0.12300
H169        H  0.98754244  0.06635013  0.58855390     0.15000
H170        H  0.90794955  0.02499049  0.53276457     0.13800
H171        H  0.03018001  0.91246351  0.44584693     0.11500
H172        H  0.10857378  0.93796332  0.51911343     0.13500
C173        C  0.09017670  0.76709271  0.47813937     0.19600
C174        C  0.11085380  0.72902251  0.47696539    -0.18500
C175        C  0.09496280  0.68795555  0.48183355    -0.10800
C176        C  0.05810448  0.68403384  0.48886333     0.21800
C177        C  0.03723637  0.72219353  0.48942335    -0.20200
C178        C  0.05305819  0.76322711  0.48435709    -0.11000
C179        C  0.04028056  0.64130751  0.49609221    -0.15200
C180        C  0.05963477  0.60322985  0.50430519    -0.29000
C181        C  0.10924700  0.81016435  0.47569082    -0.03300
C182        C  0.08865669  0.84697242  0.46090246    -0.39800
H183        H  0.13948305  0.73106790  0.47229038     0.13000
H184        H  0.11187606  0.65970596  0.47999188     0.12600
H185        H  0.00883880  0.72034305  0.49474639     0.12000
H186        H  0.03663290  0.79174180  0.48679602     0.12300
H187        H  0.00990176  0.64148331  0.49583755     0.15000
H188        H  0.09012365  0.60165977  0.50559636     0.13800
H189        H  0.14122594  0.81097203  0.48597687     0.11500
H190        H  0.05671849  0.84422916  0.44719424     0.13500
C191        C  0.22283917  0.90136207  0.48672481     0.19600
C192        C  0.24862317  0.92477624  0.46856304    -0.18500
C193        C  0.28979879  0.92069406  0.48775915    -0.10800
C194        C  0.30619748  0.89273535  0.52558576     0.21800
C195        C  0.28044329  0.86914871  0.54347611    -0.20200
C196        C  0.23942386  0.87301688  0.52420722    -0.11000
C197        C  0.34965368  0.88798098  0.54877882    -0.15200
C198        C  0.37810270  0.89757399  0.52981139    -0.29000
C199        C  0.17909260  0.90573379  0.46428270    -0.03300
C200        C  0.15187419  0.89302778  0.48408810    -0.39800
H201        H  0.23683934  0.94660698  0.43947002     0.13000
H202        H  0.30853933  0.93998102  0.47340687     0.12600
H203        H  0.29214893  0.84715170  0.57243287     0.12000
H204        H  0.22107084  0.85306431  0.53846439     0.12300
H205        H  0.35851865  0.87383165  0.58314178     0.15000
H206        H  0.36920757  0.90754966  0.49397194     0.13800
H207        H  0.16938944  0.92012178  0.43013038     0.11500
H208        H  0.16205918  0.88160116  0.51947223     0.13500
C209        C  0.05602819  0.53391323  0.74319149     0.19600
C210        C  0.03714788  0.56353446  0.76316175    -0.18500
C211        C  0.05070104  0.57079419  0.81060886    -0.10800
C212        C  0.08370405  0.54857923  0.83949486     0.21800
C213        C  0.10238677  0.51856305  0.81980986    -0.20200
C214        C  0.08890174  0.51134108  0.77221661    -0.11000
C215        C  0.09830200  0.55497438  0.89025946    -0.15200
C216        C  0.09430882  0.59282208  0.90985430    -0.29000
C217        C  0.03935938  0.52684479  0.69242743    -0.03300
C218        C  0.05732476  0.50470385  0.66749685    -0.39800
H219        H  0.01153714  0.58098745  0.74197715     0.13000
H220        H  0.03462410  0.59310086  0.82458110     0.12600
H221        H  0.12759204  0.50067209  0.84134838     0.12000
H222        H  0.10399289  0.48756353  0.75886293     0.12300
H223        H  0.11382119  0.52844833  0.91210457     0.15000
H224        H  0.08135777  0.62016401  0.88757712     0.13800
H225        H  0.01092835  0.54121443  0.67455918     0.11500
H226        H  0.08618177  0.49096869  0.68368388     0.13500
C227        C  0.46352787  0.53031582  0.28683898     0.19600
C228        C  0.48232559  0.56405032  0.27025880    -0.18500
C229        C  0.47189375  0.57294826  0.22307374    -0.10800
C230        C  0.44214240  0.54827940  0.19107510     0.21800
C231        C  0.42413816  0.51366668  0.20744765    -0.20200
C232        C  0.43456232  0.50477115  0.25472114    -0.11000
C233        C  0.42968476  0.55715356  0.14056473    -0.15200
C234        C  0.43428264  0.59636085  0.12243217    -0.29000
C235        C  0.47600461  0.52232385  0.33758398    -0.03300
C236        C  0.45450478  0.49921531  0.35870591    -0.39800
H237        H  0.50520573  0.58375009  0.29397151     0.13000
H238        H  0.48772002  0.59877545  0.21197934     0.12600
H239        H  0.40169911  0.49363237  0.18359362     0.12000
H240        H  0.42018012  0.47746094  0.26562060     0.12300
H241        H  0.41479629  0.53117311  0.11739215     0.15000
H242        H  0.44712515  0.62317885  0.14537890     0.13800
H243        H  0.50358767  0.53732682  0.35862215     0.11500
H244        H  0.42601330  0.48551358  0.33888416     0.13500
C245        C  0.30571362  0.60592635  0.03947587     0.19600
C246        C  0.27904381  0.60248985  0.06404894    -0.18500
C247        C  0.23833833  0.60099708  0.04082048    -0.10800
C248        C  0.22356120  0.60381343  0.99245928     0.21800
C249        C  0.25027316  0.60733706  0.96791597    -0.20200
C250        C  0.29098653  0.60797183  0.99110585    -0.11000
C251        C  0.18068412  0.60794730  0.96740701    -0.15200
C252        C  0.15275662  0.58913522  0.98224422    -0.29000
C253        C  0.34848323  0.61130768  0.06484275    -0.03300
C254        C  0.37634493  0.59500970  0.04935519    -0.39800
H255        H  0.28974131  0.60159424  0.10131966     0.13000
H256        H  0.21854937  0.59967918  0.06087546     0.12600
H257        H  0.23957431  0.61037529  0.93074517     0.12000
H258        H  0.31081721  0.61195591  0.97127723     0.12300
H259        H  0.17173559  0.62850712  0.93681888     0.15000
H260        H  0.16181151  0.56656252  0.01119998     0.13800
H261        H  0.35729417  0.62967618  0.09664738     0.11500
H262        H  0.36687549  0.57422634  0.01921005     0.13500
C263        C  0.06444958  0.71471261  0.96546717     0.19600
C264        C  0.02850431  0.72818108  0.96916873    -0.18500
C265        C  0.02252786  0.77190966  0.97655070    -0.10800
C266        C  0.05245119  0.80343015  0.97991419     0.21800
C267        C  0.08810946  0.78993263  0.97506834    -0.20200
C268        C  0.09409657  0.74613645  0.96784217    -0.11000
C269        C  0.04828876  0.85039268  0.98884810    -0.15200
C270        C  0.01599544  0.86766250  0.99464842    -0.29000
C271        C  0.06945011  0.66790430  0.95782886    -0.03300
C272        C  0.10483004  0.64847549  0.97073745    -0.39800
H273        H  0.00508331  0.70463867  0.96692618     0.13000
H274        H  0.99440541  0.78022003  0.97968289     0.12600
H275        H  0.11152527  0.81337679  0.97693069     0.12000
H276        H  0.12169843  0.73723284  0.96347375     0.12300
H277        H  0.07341997  0.87176887  0.99140750     0.15000
H278        H  0.99021385  0.84780135  0.99245631     0.13800
H279        H  0.04300416  0.64821171  0.94230147     0.11500
H280        H  0.13116570  0.66745933  0.98856869     0.13500
C281        C  0.96771795  0.05061878  0.81184850     0.19600
C282        C  0.99046456  0.04452166  0.78303534    -0.18500
C283        C  0.97626942  0.05694337  0.73665830    -0.10800
C284        C  0.93887688  0.07594351  0.71807817     0.21800
C285        C  0.91671866  0.08338479  0.74728402    -0.20200
C286        C  0.93084411  0.07078916  0.79362581    -0.11000
C287        C  0.92223834  0.08886773  0.66874975    -0.15200
C288        C  0.93193260  0.06927314  0.63501581    -0.29000
C289        C  0.98416346  0.03738122  0.86104042    -0.03300
C290        C  0.96168348  0.02762673  0.88747689    -0.39800
H291        H  0.01932980  0.02989525  0.79644795     0.13000
H292        H  0.99496272  0.05216796  0.71578506     0.12600
H293        H  0.88814560  0.09869492  0.73407334     0.12000
H294        H  0.91309941  0.07761737  0.81510194     0.12300
H295        H  0.89896777  0.11268196  0.65969180     0.15000
H296        H  0.95273449  0.04276410  0.64460517     0.13800
H297        H  0.01605100  0.03455000  0.87570345     0.11500
H298        H  0.92972254  0.02788694  0.87289750     0.13500
C299        C  0.05288065  0.93524939  0.23649523     0.19600
C300        C  0.03135501  0.94009475  0.26678749    -0.18500
C301        C  0.04642523  0.92522959  0.31222146    -0.10800
C302        C  0.08329140  0.90477688  0.32822901     0.21800
C303        C  0.10426160  0.89851398  0.29757170    -0.20200
C304        C  0.08936913  0.91387579  0.25215972    -0.11000
C305        C  0.09961087  0.88868557  0.37636258    -0.15200
C306        C  0.09380945  0.91003803  0.41149278    -0.29000
C307        C  0.03546498  0.95088730  0.18829792    -0.03300
C308        C  0.05736117  0.96365381  0.16218546    -0.39800
H309        H  0.00287550  0.95559373  0.25531240     0.13000
H310        H  0.02880629  0.92910401  0.33453768     0.12600
H311        H  0.13229059  0.88211848  0.30889641     0.12000
H312        H  0.10609659  0.90814128  0.22923620     0.12300
H313        H  0.11713577  0.85935949  0.38328209     0.15000
H314        H  0.07811797  0.94063605  0.40406282     0.13800
H315        H  0.00347760  0.95279058  0.17420468     0.11500
H316        H  0.08937073  0.96411795  0.17655975     0.13500
C317        C  0.45156842  0.72087088  0.03448762     0.19600
C318        C  0.48569078  0.73815021  0.02756541    -0.18500
C319        C  0.48871619  0.78247770  0.01825869    -0.10800
C320        C  0.45750356  0.81067772  0.01573658     0.21800
C321        C  0.42299413  0.79314422  0.02155899    -0.20200
C322        C  0.41996340  0.74876137  0.03084157    -0.11000
C323        C  0.45924156  0.85812428  0.00600830    -0.15200
C324        C  0.49302476  0.88025938  0.01067899    -0.29000
C325        C  0.44922272  0.67327845  0.04260024    -0.03300
C326        C  0.42521064  0.65496103  0.06386562    -0.39800
H327        H  0.51009172  0.71721914  0.02922154     0.13000
H328        H  0.51531158  0.79397397  0.01226566     0.12600
H329        H  0.39820318  0.81389900  0.01888873     0.12000
H330        H  0.39252164  0.73640628  0.03406618     0.12300
H331        H  0.43160188  0.87571954  0.99543235     0.15000
H332        H  0.52120015  0.86398045  0.02227298     0.13800
H333        H  0.46875608  0.65310783  0.03131303     0.11500
H334        H  0.40836347  0.67618140  0.07813026     0.13500
C335        C  0.58466662  0.07446602  0.29059118     0.19600
C336        C  0.57854048  0.10382896  0.25371285    -0.18500
C337        C  0.56873471  0.08864110  0.20869949    -0.10800
C338        C  0.56618557  0.04372066  0.19998196     0.21800
C339        C  0.57310252  0.01422362  0.23691959    -0.20200
C340        C  0.58169632  0.02947252  0.28192522    -0.11000
C341        C  0.55716336  0.02770445  0.15243441    -0.15200
C342        C  0.52615637  0.04292833  0.11827979    -0.29000
C343        C  0.59739063  0.09147951  0.33800958    -0.03300
C344        C  0.58394045  0.07526232  0.37116956    -0.39800
H345        H  0.58129652  0.13859974  0.25980469     0.13000
H346        H  0.56406179  0.11195318  0.18071416     0.12600
H347        H  0.57153562  0.97946653  0.23085260     0.12000
H348        H  0.58725423  0.00620145  0.31003218     0.12300
H349        H  0.57515791  0.00220148  0.14577414     0.15000
H350        H  0.50618721  0.06529756  0.12626007     0.13800
H351        H  0.61828737  0.11869109  0.34587110     0.11500
H352        H  0.56137202  0.04972788  0.36209347     0.13500
C353        C  0.44508274  0.93751360  0.67650051     0.19600
C354        C  0.42949118  0.97247418  0.69348458    -0.18500
C355        C  0.44299021  0.98218742  0.74038555    -0.10800
C356        C  0.47270527  0.95720962  0.77149048     0.21800
C357        C  0.48896888  0.92280534  0.75444113    -0.20200
C358        C  0.47518361  0.91281622  0.70746851    -0.11000
C359        C  0.48763469  0.96699988  0.82156497    -0.15200
C360        C  0.46417308  0.98342088  0.84339382    -0.29000
C361        C  0.43114379  0.92993983  0.62602629    -0.03300
C362        C  0.43348063  0.89147187  0.60654588    -0.39800
H363        H  0.40684824  0.99250718  0.67030021     0.13000
H364        H  0.43065575  0.00986915  0.75198573     0.12600
H365        H  0.51225325  0.90349384  0.77756048     0.12000
H366        H  0.48890511  0.88654193  0.69550040     0.12300
H367        H  0.51780176  0.95850946  0.84121430     0.15000
H368        H  0.43320075  0.98875326  0.82446993     0.13800
H369        H  0.41817384  0.95724146  0.60362368     0.11500
H370        H  0.44459844  0.86323312  0.62827002     0.13500
C371        C  0.93402446  0.43396188  0.21323771     0.19600
C372        C  0.91918708  0.46681219  0.23406662    -0.18500
C373        C  0.93301789  0.47218885  0.28187596    -0.10800
C374        C  0.96187668  0.44434229  0.31024206     0.21800
C375        C  0.97663056  0.41138735  0.28944696    -0.20200
C376        C  0.96273528  0.40595247  0.24164605    -0.11000
C377        C  0.97831900  0.44937216  0.36123643    -0.15200
C378        C  0.96018817  0.47097215  0.38636738    -0.29000
C379        C  0.91761119  0.42905019  0.16220789    -0.03300
C380        C  0.93581022  0.40716712  0.13721550    -0.39800
H381        H  0.89698032  0.48874607  0.21318784     0.13000
H382        H  0.92147313  0.49868981  0.29609303     0.12600
H383        H  0.99878549  0.38941407  0.31034940     0.12000
H384        H  0.97415439  0.37926623  0.22748053     0.12300
H385        H  0.00626560  0.43386921  0.37890410     0.15000
H386        H  0.93144949  0.48505587  0.36999006     0.13800
H387        H  0.88993057  0.44501145  0.14487934     0.11500
H388        H  0.96505040  0.39471794  0.15461322     0.13500
C389        C  0.03391121  0.52424167  0.99752936     0.19600
C390        C  0.01229809  0.48636811  0.97922177    -0.18500
C391        C  0.99274523  0.46214752  0.00433559    -0.10800
C392        C  0.99364694  0.47581689  0.04824625     0.21800
C393        C  0.01511671  0.51388664  0.06640053    -0.20200
C394        C  0.03481758  0.53799021  0.04135973    -0.11000
C395        C  0.97288318  0.45163110  0.07631533    -0.15200
C396        C  0.94339664  0.42228864  0.05862615    -0.29000
C397        C  0.05446188  0.54874905  0.96959842    -0.03300
C398        C  0.08664642  0.57430039  0.98837653    -0.39800
H399        H  0.01105005  0.47506574  0.94557227     0.13000
H400        H  0.97757655  0.43248139  0.98921064     0.12600
H401        H  0.01626751  0.52538293  0.09996101     0.12000
H402        H  0.05003268  0.56773381  0.05620973     0.12300
H403        H  0.98099365  0.46022817  0.11235609     0.15000
H404        H  0.93396333  0.41552733  0.02206739     0.13800
H405        H  0.04311834  0.54437832  0.93260496     0.11500
H406        H  0.09794844  0.57761063  0.02556238     0.13500
C407        C  0.96615838  0.19016770  0.06982538     0.19600
C408        C  0.92844797  0.20751082  0.06123273    -0.18500
C409        C  0.92376141  0.25189157  0.06749119    -0.10800
C410        C  0.95693832  0.28007062  0.08263189     0.21800
C411        C  0.99464626  0.26235271  0.09243029    -0.20200
C412        C  0.99929526  0.21803133  0.08633845    -0.11000
C413        C  0.95419377  0.32771353  0.08972336    -0.15200
C414        C  0.92029860  0.35023609  0.07685895    -0.29000
C415        C  0.96968478  0.14297857  0.06166653    -0.03300
C416        C  0.00169831  0.12573371  0.05514101    -0.39800
H417        H  0.90243176  0.18668663  0.04921534     0.13000
H418        H  0.89408453  0.26341191  0.06064486     0.12600
H419        H  0.02076810  0.28294842  0.10491116     0.12000
H420        H  0.02904017  0.20587267  0.09523048     0.12300
H421        H  0.98168051  0.34550061  0.10569133     0.15000
H422        H  0.89272306  0.33353362  0.05917560     0.13800
H423        H  0.94426389  0.12197645  0.05897261     0.11500
H424        H  0.02676728  0.14627663  0.05553784     0.13500
C425        C  0.56230606  0.45007232  0.72027976     0.19600
C426        C  0.58566353  0.47670578  0.75605548    -0.18500
C427        C  0.59433954  0.46374368  0.80227738    -0.10800
C428        C  0.58018894  0.42345294  0.81347594     0.21800
C429        C  0.55775714  0.39651101  0.77757402    -0.20200
C430        C  0.54891259  0.40952183  0.73168025    -0.11000
C431        C  0.58948403  0.40671696  0.86150488    -0.15200
C432        C  0.59992672  0.43169068  0.89963870    -0.29000
C433        C  0.55301194  0.46437121  0.67133595    -0.03300
C434        C  0.51938125  0.45189947  0.63849707    -0.39800
H435        H  0.59697415  0.50772385  0.74821993     0.13000
H436        H  0.61273693  0.48487802  0.82883838     0.12600
H437        H  0.54701456  0.36500398  0.78506550     0.12000
H438        H  0.53219235  0.38724892  0.70520664     0.12300
H439        H  0.58671855  0.37173757  0.86486014     0.15000
H440        H  0.60301500  0.46666840  0.89599667     0.13800
H441        H  0.57368345  0.48612891  0.66241953     0.11500
H442        H  0.49766907  0.43237686  0.64803495     0.13500
C443        C  0.49408706  0.53119151  0.03556574     0.19600
C444        C  0.53253087  0.51620117  0.05743400    -0.18500
C445        C  0.55271620  0.49402125  0.03271528    -0.10800
C446        C  0.53469223  0.48602089  0.98540561     0.21800
C447        C  0.49623545  0.50072557  0.96358861    -0.20200
C448        C  0.47593613  0.52258346  0.98832721    -0.11000
C449        C  0.55563899  0.46426398  0.95736390    -0.15200
C450        C  0.58499106  0.43579258  0.97537291    -0.29000
C451        C  0.47396665  0.55503859  0.06332580    -0.03300
C452        C  0.44190212  0.57982623  0.04444738    -0.39800
H453        H  0.54725352  0.52221166  0.09367873     0.13000
H454        H  0.58273373  0.48426912  0.05059874     0.12600
H455        H  0.48167067  0.49494002  0.92724810     0.12000
H456        H  0.44594695  0.53200006  0.97009196     0.12300
H457        H  0.54566499  0.47124336  0.92071725     0.15000
H458        H  0.59224008  0.42653810  0.01137307     0.13800
H459        H  0.48718604  0.55338984  0.10046215     0.11500
H460        H  0.43085356  0.58412085  0.00737320     0.13500
C461        C  0.55848601  0.29858392  0.93814209     0.19600
C462        C  0.52131416  0.28372327  0.93830929    -0.18500
C463        C  0.51380280  0.23927239  0.94249271    -0.10800
C464        C  0.54339473  0.20852826  0.94606510     0.21800
C465        C  0.58016421  0.22344810  0.94433729    -0.20200
C466        C  0.58764804  0.26785283  0.94022076    -0.11000
C467        C  0.53810973  0.16098137  0.95294117    -0.15200
C468        C  0.50423938  0.14162061  0.95353321    -0.29000
C469        C  0.56565559  0.34618105  0.93533371    -0.03300
C470        C  0.60189451  0.36478359  0.95137093    -0.39800
H471        H  0.49819941  0.30673130  0.93617368     0.13000
H472        H  0.48495968  0.22971900  0.94357881     0.12600
H473        H  0.60339813  0.20062788  0.94645765     0.12000
H474        H  0.61618290  0.27778315  0.93832263     0.12300
H475        H  0.56391706  0.14083195  0.95852372     0.15000
H476        H  0.47755769  0.16008643  0.94756825     0.13800
H477        H  0.54024876  0.36698016  0.92096262     0.11500
H478        H  0.62704801  0.34439168  0.96826901     0.13500
C479        C  0.80413045  0.40416998  0.04557558     0.19600
C480        C  0.77462425  0.39988573  0.06616019    -0.18500
C481        C  0.73473623  0.40315402  0.03960733    -0.10800
C482        C  0.72367387  0.40996321  0.99173447     0.21800
C483        C  0.75311542  0.41416142  0.97116822    -0.20200
C484        C  0.79296420  0.41164797  0.99777152    -0.11000
C485        C  0.68174325  0.40807299  0.96210607    -0.15200
C486        C  0.65233946  0.42327805  0.97556443    -0.29000
C487        C  0.84588997  0.39625653  0.07355101    -0.03300
C488        C  0.87655795  0.41407306  0.06303161    -0.39800
H489        H  0.78243842  0.39322574  0.10270040     0.13000
H490        H  0.71261190  0.39838930  0.05621159     0.12600
H491        H  0.74520463  0.41859141  0.93425711     0.12000
H492        H  0.81476520  0.41352852  0.98043102     0.12300
H493        H  0.67468599  0.39243066  0.92884512     0.15000
H494        H  0.65998064  0.44105440  0.00773026     0.13800
H495        H  0.85167909  0.37364598  0.10241652     0.11500
H496        H  0.87046537  0.43836713  0.03563762     0.13500
loop_ 
_geom_bond_atom_site_label_1 
_geom_bond_atom_site_label_2 
_geom_bond_distance 
_geom_bond_site_symmetry_2 
_ccdc_geom_bond_type 
C1          C432   1.543       .  S
C1          C450   1.529       .  S
C1          C470   1.528       .  S
C1          C486   1.523       .  S
C2          C380   1.539       .  S
C2          C396   1.531       .  S
C2          C414   1.529       .  S
C2          C488   1.530       .  S
O3          Cu11   2.010       .  S
O3           C13   1.277       .  A
O4          Cu11   2.018   1_565  S
O4           C14   1.280   1_556  A
O5          Cu11   1.999   1_554  S
O5           C15   1.275       .  A
O6          Cu11   1.995       .  S
O6           C16   1.275   1_545  A
O7          Cu12   2.031   1_565  S
O7           C16   1.281       .  A
O8          Cu12   2.027   1_554  S
O8           C15   1.280       .  A
O9          Cu12   1.993   1_565  S
O9           C14   1.275   1_556  A
O10         Cu12   2.005       .  S
O10          C13   1.278       .  A
Cu11        Cu12   2.375       .  S
C13         C468   1.476       .  S
C14         C324   1.472       .  S
C15         C342   1.472       .  S
C16         C360   1.476       .  S
O17         Cu25   2.013   1_546  S
O17          C27   1.278       .  A
O18         Cu25   2.013   1_455  S
O18          C28   1.279       .  A
O19         Cu25   2.009   1_545  S
O19          C29   1.278   1_655  A
O20         Cu25   2.006       .  S
O20          C30   1.277   1_655  A
O21         Cu26   2.009   1_565  S
O21          C30   1.278       .  A
O22         Cu26   2.010       .  S
O22          C29   1.277       .  A
O23         Cu26   2.007   1_565  S
O23          C28   1.277       .  A
O24         Cu26   2.007   1_556  S
O24          C27   1.278   1_455  A
Cu25        Cu26   2.375   1_665  S
C27         C290   1.477       .  S
C28         C308   1.476       .  S
C29         C416   1.475       .  S
C30         C270   1.474   1_554  S
C31         C234   1.530       .  S
C31         C254   1.525       .  S
C31         C326   1.532       .  S
C31         C452   1.533       .  S
C32         C216   1.532       .  S
C32         C252   1.526       .  S
C32         C272   1.524       .  S
C32         C398   1.531       .  S
C33         C164   1.536       .  S
C33         C182   1.536       .  S
C33         C200   1.544       .  S
C33         C306   1.527       .  S
C34         C126   1.532       .  S
C34         C144   1.526       .  S
C34         C198   1.542       .  S
C34         C362   1.528       .  S
O35         Cu43   2.003       .  S
O35          C45   1.276       .  A
O36         Cu43   2.003       .  S
O36          C46   1.276       .  A
O37         Cu43   2.024       .  S
O37          C47   1.280       .  A
O38         Cu43   2.025       .  S
O38          C48   1.279       .  A
O39         Cu44   1.997       .  S
O39          C48   1.277       .  A
O40         Cu44   1.998       .  S
O40          C47   1.275       .  A
O41         Cu44   2.033       .  S
O41          C46   1.282       .  A
O42         Cu44   2.034       .  S
O42          C45   1.281       .  A
Cu43        Cu44   2.373       .  S
C45         C434   1.479       .  S
C46         C236   1.482       .  S
C47         C108   1.474       .  S
C48         C146   1.481       .  S
O49         Cu57   2.017       .  S
O49          C59   1.279   1_455  A
O50         Cu57   2.017       .  S
O50          C60   1.278       .  A
O51         Cu57   2.016       .  S
O51          C61   1.279   1_455  A
O52         Cu57   2.016       .  S
O52          C62   1.278       .  A
O53         Cu58   2.015   1_455  S
O53          C62   1.279       .  A
O54         Cu58   2.016       .  S
O54          C61   1.278       .  A
O55         Cu58   2.020   1_455  S
O55          C60   1.280       .  A
O56         Cu58   2.017       .  S
O56          C59   1.278       .  A
Cu57        Cu58   2.372   1_455  S
C59         C378   1.481       .  S
C60         C218   1.483       .  S
C61          C92   1.482       .  S
C62         C180   1.480       .  S
C63          C74   1.540       .  S
C63         C110   1.537       .  S
C63         C128   1.535       .  S
C63         C344   1.534       .  S
C64          C72   1.535       .  S
C64          C90   1.534       .  S
C64         C162   1.539       .  S
C64         C288   1.535       .  S
C65          C73   1.502       .  S
C65          C66   1.405       .  A
C65          C70   1.412       .  A
C66          C67   1.404       .  A
C66          H75   1.085       .  S
C67          C68   1.411       .  A
C67          H76   1.081       .  S
C68          C71   1.500       .  S
C68          C69   1.404       .  A
C69          C70   1.402       .  A
C69          H77   1.085       .  S
C70          H78   1.080       .  S
C71          H79   1.086       .  S
C71          C72   1.350       .  D
C72          H80   1.084       .  S
C73          H81   1.082       .  S
C73          C74   1.350       .  D
C74          H82   1.086       .  S
C83          C91   1.495       .  S
C83          C84   1.404       .  A
C83          C88   1.411       .  A
C84          C85   1.398       .  A
C84          H93   1.084   1_655  S
C85          C86   1.407       .  A
C85          H94   1.081       .  S
C86          C89   1.491       .  S
C86          C87   1.403       .  A
C87          C88   1.403       .  A
C87          H95   1.084       .  S
C88          H96   1.078       .  S
C89          H97   1.084       .  S
C89          C90   1.348       .  D
C90          H98   1.086       .  S
C91          H99   1.087   1_655  S
C91          C92   1.348       .  D
C92         H100   1.082       .  S
C101        C109   1.486       .  S
C101        C102   1.403       .  A
C101        C106   1.409       .  A
C102        C103   1.398       .  A
C102        H111   1.082       .  S
C103        C104   1.407       .  A
C103        H112   1.082       .  S
C104        C107   1.485       .  S
C104        C105   1.402       .  A
C105        C106   1.399       .  A
C105        H113   1.083       .  S
C106        H114   1.083       .  S
C107        H115   1.087       .  S
C107        C108   1.343       .  D
C108        H116   1.086       .  S
C109        H117   1.079       .  S
C109        C110   1.350       .  D
C110        H118   1.084       .  S
C119        C127   1.497       .  S
C119        C120   1.402   1_545  A
C119        C124   1.414       .  A
C120        C121   1.401       .  A
C120        H129   1.083       .  S
C121        C122   1.411       .  A
C121        H130   1.082       .  S
C122        C125   1.494       .  S
C122        C123   1.401   1_565  A
C123        C124   1.402       .  A
C123        H131   1.084       .  S
C124        H132   1.081       .  S
C125        H133   1.084       .  S
C125        C126   1.347       .  D
C126        H134   1.088       .  S
C127        H135   1.086       .  S
C127        C128   1.348       .  D
C128        H136   1.085       .  S
C137        C145   1.489       .  S
C137        C138   1.404       .  A
C137        C142   1.410       .  A
C138        C139   1.394       .  A
C138        H147   1.084       .  S
C139        C140   1.406       .  A
C139        H148   1.083       .  S
C140        C143   1.486       .  S
C140        C141   1.403       .  A
C141        C142   1.403       .  A
C141        H149   1.082       .  S
C142        H150   1.082       .  S
C143        H151   1.084       .  S
C143        C144   1.347       .  D
C144        H152   1.088       .  S
C145        H153   1.088       .  S
C145        C146   1.348       .  D
C146        H154   1.084       .  S
C155        C163   1.495       .  S
C155        C156   1.408   1_455  A
C155        C160   1.405       .  A
C156        C157   1.403       .  A
C156        H165   1.083       .  S
C157        C158   1.406   1_565  A
C157        H166   1.080       .  S
C158        C161   1.494       .  S
C158        C159   1.408   1_655  A
C159        C160   1.400   1_545  A
C159        H167   1.083       .  S
C160        H168   1.081       .  S
C161        H169   1.089       .  S
C161        C162   1.358       .  D
C162        H170   1.086       .  S
C163        H171   1.086       .  S
C163        C164   1.359       .  D
C164        H172   1.084       .  S
C173        C181   1.490       .  S
C173        C174   1.403       .  A
C173        C178   1.407       .  A
C174        C175   1.400       .  A
C174        H183   1.082       .  S
C175        C176   1.410       .  A
C175        H184   1.080       .  S
C176        C179   1.494       .  S
C176        C177   1.405       .  A
C177        C178   1.400       .  A
C177        H185   1.083       .  S
C178        H186   1.081       .  S
C179        H187   1.086       .  S
C179        C180   1.349       .  D
C180        H188   1.082       .  S
C181        H189   1.085       .  S
C181        C182   1.351       .  D
C182        H190   1.085       .  S
C191        C199   1.500       .  S
C191        C192   1.409       .  A
C191        C196   1.408       .  A
C192        C193   1.406       .  A
C192        H201   1.084       .  S
C193        C194   1.407       .  A
C193        H202   1.081       .  S
C194        C197   1.495       .  S
C194        C195   1.406       .  A
C195        C196   1.400       .  A
C195        H203   1.084       .  S
C196        H204   1.080       .  S
C197        H205   1.086       .  S
C197        C198   1.357       .  D
C198        H206   1.084       .  S
C199        H207   1.083       .  S
C199        C200   1.358       .  D
C200        H208   1.084       .  S
C209        C217   1.495       .  S
C209        C210   1.405       .  A
C209        C214   1.411       .  A
C210        C211   1.399       .  A
C210        H219   1.082       .  S
C211        C212   1.407       .  A
C211        H220   1.082       .  S
C212        C215   1.490       .  S
C212        C213   1.403       .  A
C213        C214   1.403       .  A
C213        H221   1.083       .  S
C214        H222   1.079       .  S
C215        H223   1.087       .  S
C215        C216   1.348       .  D
C216        H224   1.086       .  S
C217        H225   1.086       .  S
C217        C218   1.349       .  D
C218        H226   1.081       .  S
C227        C235   1.494       .  S
C227        C228   1.404       .  A
C227        C232   1.410       .  A
C228        C229   1.399       .  A
C228        H237   1.083       .  S
C229        C230   1.408       .  A
C229        H238   1.081       .  S
C230        C233   1.492       .  S
C230        C231   1.404       .  A
C231        C232   1.402       .  A
C231        H239   1.082       .  S
C232        H240   1.082       .  S
C233        H241   1.086       .  S
C233        C234   1.350       .  D
C234        H242   1.085       .  S
C235        H243   1.087       .  S
C235        C236   1.347       .  D
C236        H244   1.084       .  S
C245        C253   1.482       .  S
C245        C246   1.401       .  A
C245        C250   1.407   1_554  A
C246        C247   1.399       .  A
C246        H255   1.083       .  S
C247        C248   1.408   1_554  A
C247        H256   1.082       .  S
C248        C251   1.484       .  S
C248        C249   1.402       .  A
C249        C250   1.399       .  A
C249        H257   1.084       .  S
C250        H258   1.082       .  S
C251        H259   1.086       .  S
C251        C252   1.347       .  D
C252        H260   1.087   1_556  S
C253        H261   1.087       .  S
C253        C254   1.346       .  D
C254        H262   1.088       .  S
C263        C271   1.483       .  S
C263        C264   1.401       .  A
C263        C268   1.406       .  A
C264        C265   1.397       .  A
C264        H273   1.083       .  S
C265        C266   1.410       .  A
C265        H274   1.079   1_455  S
C266        C269   1.491       .  S
C266        C267   1.405       .  A
C267        C268   1.398       .  A
C267        H275   1.083       .  S
C268        H276   1.082       .  S
C269        H277   1.087       .  S
C269        C270   1.347       .  D
C270        H278   1.081   1_455  S
C271        H279   1.087       .  S
C271        C272   1.347       .  D
C272        H280   1.087       .  S
C281        C289   1.486       .  S
C281        C282   1.403       .  A
C281        C286   1.407       .  A
C282        C283   1.399       .  A
C282        H291   1.084   1_655  S
C283        C284   1.408       .  A
C283        H292   1.082       .  S
C284        C287   1.488       .  S
C284        C285   1.404       .  A
C285        C286   1.399       .  A
C285        H293   1.084       .  S
C286        H294   1.081       .  S
C287        H295   1.083       .  S
C287        C288   1.349       .  D
C288        H296   1.085       .  S
C289        H297   1.087   1_655  S
C289        C290   1.347       .  D
C290        H298   1.085       .  S
C299        C307   1.484       .  S
C299        C300   1.402       .  A
C299        C304   1.409       .  A
C300        C301   1.396       .  A
C300        H309   1.082       .  S
C301        C302   1.407       .  A
C301        H310   1.083       .  S
C302        C305   1.484       .  S
C302        C303   1.402       .  A
C303        C304   1.400       .  A
C303        H311   1.081       .  S
C304        H312   1.083       .  S
C305        H313   1.086       .  S
C305        C306   1.346       .  D
C306        H314   1.087       .  S
C307        H315   1.087       .  S
C307        C308   1.344       .  D
C308        H316   1.086       .  S
C317        C325   1.485       .  S
C317        C318   1.402       .  A
C317        C322   1.407       .  A
C318        C319   1.396       .  A
C318        H327   1.083       .  S
C319        C320   1.409       .  A
C319        H328   1.081       .  S
C320        C323   1.487       .  S
C320        C321   1.403       .  A
C321        C322   1.398       .  A
C321        H329   1.084       .  S
C322        H330   1.082       .  S
C323        H331   1.088   1_554  S
C323        C324   1.344       .  D
C324        H332   1.084       .  S
C325        H333   1.084       .  S
C325        C326   1.351       .  D
C326        H334   1.085       .  S
C335        C343   1.478       .  S
C335        C336   1.401       .  A
C335        C340   1.406       .  A
C336        C337   1.397       .  A
C336        H345   1.084       .  S
C337        C338   1.404       .  A
C337        H346   1.084       .  S
C338        C341   1.480       .  S
C338        C339   1.403       .  A
C339        C340   1.401       .  A
C339        H347   1.083   1_545  S
C340        H348   1.083       .  S
C341        H349   1.087       .  S
C341        C342   1.341       .  D
C342        H350   1.088       .  S
C343        H351   1.087       .  S
C343        C344   1.349       .  D
C344        H352   1.087       .  S
C353        C361   1.487       .  S
C353        C354   1.403       .  A
C353        C358   1.409       .  A
C354        C355   1.398       .  A
C354        H363   1.083       .  S
C355        C356   1.407       .  A
C355        H364   1.082   1_565  S
C356        C359   1.489       .  S
C356        C357   1.403       .  A
C357        C358   1.402       .  A
C357        H365   1.083       .  S
C358        H366   1.082       .  S
C359        H367   1.087       .  S
C359        C360   1.344       .  D
C360        H368   1.086       .  S
C361        H369   1.087       .  S
C361        C362   1.348       .  D
C362        H370   1.086       .  S
C371        C379   1.494       .  S
C371        C372   1.404       .  A
C371        C376   1.409       .  A
C372        C373   1.401       .  A
C372        H381   1.083       .  S
C373        C374   1.409       .  A
C373        H382   1.080       .  S
C374        C377   1.493       .  S
C374        C375   1.404       .  A
C375        C376   1.401       .  A
C375        H383   1.083       .  S
C376        H384   1.081       .  S
C377        H385   1.086   1_655  S
C377        C378   1.349       .  D
C378        H386   1.083       .  S
C379        H387   1.083       .  S
C379        C380   1.352       .  D
C380        H388   1.083       .  S
C389        C397   1.491       .  S
C389        C390   1.403       .  A
C389        C394   1.408   1_556  A
C390        C391   1.400   1_456  A
C390        H399   1.083       .  S
C391        C392   1.410       .  A
C391        H400   1.081   1_554  S
C392        C395   1.494       .  S
C392        C393   1.405   1_655  A
C393        C394   1.400       .  A
C393        H401   1.083       .  S
C394        H402   1.082       .  S
C395        H403   1.085       .  S
C395        C396   1.351       .  D
C396        H404   1.085       .  S
C397        H405   1.085       .  S
C397        C398   1.350       .  D
C398        H406   1.087   1_556  S
C407        C415   1.489       .  S
C407        C408   1.404       .  A
C407        C412   1.407       .  A
C408        C409   1.400       .  A
C408        H417   1.083       .  S
C409        C410   1.410       .  A
C409        H418   1.080       .  S
C410        C413   1.492       .  S
C410        C411   1.404       .  A
C411        C412   1.397       .  A
C411        H419   1.083   1_655  S
C412        H420   1.083   1_655  S
C413        H421   1.086       .  S
C413        C414   1.349       .  D
C414        H422   1.083       .  S
C415        H423   1.088       .  S
C415        C416   1.347   1_655  D
C416        H424   1.085       .  S
C425        C433   1.493       .  S
C425        C426   1.406       .  A
C425        C430   1.407       .  A
C426        C427   1.406       .  A
C426        H435   1.083       .  S
C427        C428   1.409       .  A
C427        H436   1.081       .  S
C428        C431   1.490       .  S
C428        C429   1.403       .  A
C429        C430   1.396       .  A
C429        H437   1.084       .  S
C430        H438   1.082       .  S
C431        H439   1.083       .  S
C431        C432   1.353       .  D
C432        H440   1.086       .  S
C433        H441   1.086       .  S
C433        C434   1.348       .  D
C434        H442   1.085       .  S
C443        C451   1.492       .  S
C443        C444   1.404       .  A
C443        C448   1.410   1_554  A
C444        C445   1.400       .  A
C444        H453   1.083       .  S
C445        C446   1.408   1_554  A
C445        H454   1.082       .  S
C446        C449   1.488       .  S
C446        C447   1.401       .  A
C447        C448   1.398       .  A
C447        H455   1.083       .  S
C448        H456   1.080       .  S
C449        H457   1.085       .  S
C449        C450   1.348       .  D
C450        H458   1.086   1_556  S
C451        H459   1.085       .  S
C451        C452   1.349       .  D
C452        H460   1.085       .  S
C461        C469   1.485       .  S
C461        C462   1.402       .  A
C461        C466   1.407       .  A
C462        C463   1.399       .  A
C462        H471   1.084       .  S
C463        C464   1.410       .  A
C463        H472   1.080       .  S
C464        C467   1.490       .  S
C464        C465   1.404       .  A
C465        C466   1.397       .  A
C465        H473   1.084       .  S
C466        H474   1.081       .  S
C467        H475   1.087       .  S
C467        C468   1.347       .  D
C468        H476   1.083       .  S
C469        H477   1.088       .  S
C469        C470   1.348       .  D
C470        H478   1.086       .  S
C479        C487   1.485       .  S
C479        C480   1.403       .  A
C479        C484   1.408   1_554  A
C480        C481   1.400       .  A
C480        H489   1.083       .  S
C481        C482   1.408   1_554  A
C481        H490   1.082       .  S
C482        C485   1.481       .  S
C482        C483   1.400       .  A
C483        C484   1.397       .  A
C483        H491   1.084       .  S
C484        H492   1.081       .  S
C485        H493   1.087       .  S
C485        C486   1.345       .  D
C486        H494   1.088   1_556  S
C487        H495   1.087       .  S
C487        C488   1.348       .  D
C488        H496   1.087       .  S
