geometry optimzed in LAMMPS
_audit_creation_date              2020-11-30 
_audit_creation_method            'lammps2cif' 
_symmetry_space_group_name_H-M    'P1' 
_symmetry_Int_Tables_number       1 
_symmetry_cell_setting            triclinic 
loop_ 
_symmetry_equiv_pos_as_xyz 
  x,y,z 
_cell_length_a                    49.78851864618355 
_cell_length_b                    45.57854380077314 
_cell_length_c                    43.65074793805494 
_cell_angle_alpha                 89.85472828806708 
_cell_angle_beta                  89.99749720823019 
_cell_angle_gamma                 90.03612020378243 
loop_ 
_atom_site_label 
_atom_site_type_symbol 
_atom_site_fract_x 
_atom_site_fract_y 
_atom_site_fract_z 
_atom_site_charge 
N1          N  0.35660969  0.93016593  0.53822987    -0.27050
N2          N  0.37898098  0.94577683  0.53810536    -0.34910
C3          C  0.38252975  0.95761222  0.51026708     0.01290
C4          C  0.36133201  0.94941364  0.49182338     0.07320
C5          C  0.34518958  0.93192159  0.51022332    -0.05780
H6          H  0.40056560  0.96898363  0.50310320     0.07990
H7          H  0.32807794  0.91906281  0.50294539     0.09190
Cu8        Cu  0.40775171  0.94431603  0.57204507     0.44170
Cu9        Cu  0.34690666  0.90258560  0.57474728     0.41990
Cu10       Cu  0.40281171  0.89046870  0.63009855     0.43880
N11         N  0.43987303  0.93237161  0.59913688    -0.34430
N12         N  0.43866461  0.91154351  0.62015205    -0.28690
C13         C  0.46372238  0.90575106  0.63021217    -0.04790
C14         C  0.48139836  0.92395255  0.61462874     0.07430
C15         C  0.46551623  0.94055069  0.59526050     0.01220
H16         H  0.46878191  0.88862306  0.64641381     0.08880
H17         H  0.47220866  0.95608515  0.57810742     0.07950
N18         N  0.36538671  0.87059212  0.63228615    -0.35880
N19         N  0.34551985  0.87444427  0.61247469    -0.28060
C20         C  0.32542188  0.85586716  0.61962330    -0.03300
C21         C  0.33317386  0.83950132  0.64481012     0.05310
C22         C  0.35835843  0.84969916  0.65251963     0.03400
H23         H  0.30701363  0.85358284  0.60667200     0.08510
H24         H  0.37112352  0.84174760  0.67079610     0.07340
N25         N  0.63740656  0.93256751  0.54167843    -0.27050
N26         N  0.61444876  0.94704112  0.54078356    -0.34910
C27         C  0.61098044  0.95838520  0.51272471     0.01290
C28         C  0.63286549  0.95103416  0.49497406     0.07320
C29         C  0.64933541  0.93458716  0.51398281    -0.05780
H30         H  0.59266789  0.96880016  0.50495843     0.07990
H31         H  0.66708161  0.92249721  0.50730851     0.09190
Cu32       Cu  0.58521379  0.94431028  0.57400627     0.44170
Cu33       Cu  0.64703406  0.90557320  0.57852550     0.41990
Cu34       Cu  0.58881441  0.88718656  0.62900872     0.43880
N35         N  0.55274505  0.93142584  0.59994751    -0.34430
N36         N  0.55335577  0.90953247  0.61979116    -0.28690
C37         C  0.52810075  0.90405995  0.62945931    -0.04790
C38         C  0.51096300  0.92350814  0.61473972     0.07430
C39         C  0.52734838  0.94051012  0.59634769     0.01220
H40         H  0.52251845  0.88636507  0.64475647     0.08880
H41         H  0.52116221  0.95713577  0.58009564     0.07950
N42         N  0.62701982  0.86906059  0.63234476    -0.35880
N43         N  0.64790713  0.87605050  0.61494456    -0.28060
C44         C  0.66888939  0.85906259  0.62289811    -0.03300
C45         C  0.66069260  0.84044375  0.64607714     0.05310
C46         C  0.63417404  0.84734474  0.65157184     0.03400
H47         H  0.68824006  0.85925980  0.61161909     0.08510
H48         H  0.62078437  0.83671030  0.66766358     0.07340
N49         N  0.63858109  0.97181722  0.41517539    -0.27050
N50         N  0.61585567  0.95686075  0.41512737    -0.34910
C51         C  0.61195781  0.94499904  0.44289052     0.01290
C52         C  0.63332598  0.95251012  0.46141232     0.07320
C53         C  0.64992036  0.96959728  0.44316387    -0.05780
H54         H  0.59360475  0.93420716  0.44998136     0.07990
H55         H  0.66725690  0.98201934  0.45057603     0.09190
Cu56       Cu  0.58730362  0.95975584  0.38109172     0.44170
Cu57       Cu  0.64868332  0.99954487  0.37911784     0.41990
Cu58       Cu  0.59231709  0.01683588  0.32584668     0.43880
N59         N  0.55531075  0.97320522  0.35463768    -0.34430
N60         N  0.55640209  0.99517765  0.33490445    -0.28690
C61         C  0.53127791  0.00122622  0.32516109    -0.04790
C62         C  0.51372309  0.98203454  0.33964940     0.07430
C63         C  0.52973831  0.96459105  0.35800332     0.01220
H64         H  0.52607986  0.01909781  0.30992237     0.08880
H65         H  0.52318153  0.94804951  0.37416962     0.07950
N66         N  0.63087644  0.03430413  0.32309727    -0.35880
N67         N  0.65094304  0.02813138  0.34199600    -0.28060
C68         C  0.67230954  0.04471093  0.33440679    -0.03300
C69         C  0.66548536  0.06175412  0.30941559     0.05310
C70         C  0.63906117  0.05489295  0.30304012     0.03400
H71         H  0.69106336  0.04516558  0.34691891     0.08510
H72         H  0.62637936  0.06497758  0.28586608     0.07340
N73         N  0.35720910  0.97022453  0.41177798    -0.27050
N74         N  0.38029236  0.95596207  0.41256236    -0.34910
C75         C  0.38369533  0.94417092  0.44044193     0.01290
C76         C  0.36167601  0.95100165  0.45822571     0.07320
C77         C  0.34519079  0.96764033  0.43938844    -0.05780
H78         H  0.40209214  0.93390342  0.44816288     0.07990
H79         H  0.32736262  0.97951816  0.44619301     0.09190
Cu80       Cu  0.40988578  0.95957304  0.37972882     0.44170
Cu81       Cu  0.34730653  0.99769021  0.37528621     0.41990
Cu82       Cu  0.40587170  0.01754595  0.32611091     0.43880
N83         N  0.44241413  0.97332413  0.35422208    -0.34430
N84         N  0.44158963  0.99563101  0.33490507    -0.28690
C85         C  0.46677951  0.00166287  0.32537602    -0.04790
C86         C  0.48413534  0.98212423  0.33960500     0.07430
C87         C  0.46791900  0.96448900  0.35758525     0.01220
H88         H  0.47215384  0.01973850  0.31047331     0.08880
H89         H  0.47428748  0.94758198  0.37342280     0.07950
N90         N  0.36748059  0.03498769  0.32222676    -0.35880
N91         N  0.34635888  0.02747411  0.33898937    -0.28060
C92         C  0.32526405  0.04410536  0.33049611    -0.03300
C93         C  0.33358524  0.06295061  0.30749230     0.05310
C94         C  0.36041468  0.05669703  0.30299810     0.03400
H95         H  0.30573288  0.04358886  0.34135450     0.08510
H96         H  0.37404490  0.06773113  0.28746794     0.07340
N97         N  0.35781441  0.43323521  0.41480239    -0.27050
N98         N  0.38081483  0.44768320  0.41536000    -0.34910
C99         C  0.38442192  0.45921930  0.44326064     0.01290
C100        C  0.36259715  0.45201596  0.46124273     0.07320
C101        C  0.34601474  0.43547220  0.44253362    -0.05780
H102        H  0.40281696  0.46959340  0.45081325     0.07990
H103        H  0.32832184  0.42337650  0.44948955     0.09190
Cu104      Cu  0.41000145  0.44459465  0.38205415     0.44170
Cu105      Cu  0.34793317  0.40570820  0.37862503     0.41990
Cu106      Cu  0.40555605  0.38775095  0.32726048     0.43880
N107        N  0.44232104  0.43134895  0.35606036    -0.34430
N108        N  0.44140463  0.40949756  0.33629685    -0.28690
C109        C  0.46660821  0.40356016  0.32675077    -0.04790
C110        C  0.48403948  0.42269443  0.34142441     0.07430
C111        C  0.46785604  0.43998443  0.35967311     0.01220
H112        H  0.47194394  0.38575795  0.31157958     0.08880
H113        H  0.47426227  0.45646140  0.37590053     0.07950
N114        N  0.36748812  0.36898697  0.32505760    -0.35880
N115        N  0.34689229  0.37546879  0.34303377    -0.28060
C116        C  0.32622256  0.35758360  0.33620924    -0.03300
C117        C  0.33430389  0.33869590  0.31324620     0.05310
C118        C  0.36040518  0.34685225  0.30646501     0.03400
H119        H  0.30716434  0.35741295  0.34811686     0.08510
H120        H  0.37362165  0.33683529  0.28982814     0.07340
N121        N  0.63813140  0.43103966  0.41846419    -0.27050
N122        N  0.61566787  0.44643064  0.41821198    -0.34910
C123        C  0.61209490  0.45874688  0.44575602     0.01290
C124        C  0.63342391  0.45108923  0.46430078     0.07320
C125        C  0.64961673  0.43340837  0.44633785    -0.05780
H126        H  0.59397296  0.47000307  0.45272810     0.07990
H127        H  0.66677452  0.42076460  0.45390542     0.09190
Cu128      Cu  0.58706853  0.44379854  0.38418045     0.44170
Cu129      Cu  0.64776482  0.40274005  0.38294562     0.41990
Cu130      Cu  0.59224064  0.38806564  0.32778560     0.43880
N131        N  0.55517938  0.43104556  0.35718990    -0.34430
N132        N  0.55633427  0.40961903  0.33693255    -0.28690
C133        C  0.53124435  0.40385286  0.32687564    -0.04790
C134        C  0.51364274  0.42267376  0.34168738     0.07430
C135        C  0.52960556  0.43959741  0.36056824     0.01220
H136        H  0.52609184  0.38638831  0.31119477     0.08880
H137        H  0.52300166  0.45572032  0.37706878     0.07950
N138        N  0.63028654  0.36924079  0.32620766    -0.35880
N139        N  0.64988609  0.37412429  0.34605463    -0.28060
C140        C  0.67072210  0.35652041  0.33933975    -0.03300
C141        C  0.66416624  0.33995834  0.31384083     0.05310
C142        C  0.63832021  0.34860848  0.30627695     0.03400
H143        H  0.68883931  0.35502744  0.35292903     0.08510
H144        H  0.62587521  0.33994134  0.28810744     0.07340
N145        N  0.35725679  0.47224926  0.54117355    -0.27050
N146        N  0.38000576  0.45736318  0.54102825    -0.34910
C147        C  0.38381691  0.44578209  0.51318480     0.01290
C148        C  0.36237769  0.45341941  0.49480800     0.07320
C149        C  0.34581817  0.47026815  0.51322457    -0.05780
H150        H  0.40213340  0.43505572  0.50596548     0.07990
H151        H  0.32843753  0.48270708  0.50595723     0.09190
Cu152      Cu  0.40868060  0.45992128  0.57494932     0.44170
Cu153      Cu  0.34740134  0.49989686  0.57723662     0.41990
Cu154      Cu  0.40431027  0.51729464  0.62962841     0.43880
N155        N  0.44064956  0.47265119  0.60179004    -0.34430
N156        N  0.43972261  0.49456936  0.62148032    -0.28690
C157        C  0.46480157  0.50003503  0.63168383    -0.04790
C158        C  0.48217783  0.48055297  0.61751550     0.07430
C159        C  0.46610236  0.46352337  0.59886975     0.01220
H160        H  0.47013174  0.51779564  0.64691941     0.08880
H161        H  0.47257516  0.44691910  0.58282707     0.07950
N162        N  0.36657735  0.53671555  0.63102732    -0.35880
N163        N  0.34618589  0.53022205  0.61273026    -0.28060
C164        C  0.32543192  0.54799544  0.61933593    -0.03300
C165        C  0.33331912  0.56678940  0.64241709     0.05310
C166        C  0.35929510  0.55882830  0.64958928     0.03400
H167        H  0.30632702  0.54787430  0.60752213     0.08510
H168        H  0.37222310  0.56888584  0.66649803     0.07340
N169        N  0.63735733  0.47245602  0.54398517    -0.27050
N170        N  0.61489398  0.45702448  0.54368026    -0.34910
C171        C  0.61163370  0.44504046  0.51593101     0.01290
C172        C  0.63315592  0.45295944  0.49781437     0.07320
C173        C  0.64915776  0.47043705  0.51624308    -0.05780
H174        H  0.59363107  0.43375757  0.50857301     0.07990
H175        H  0.66646169  0.48310360  0.50912013     0.09190
Cu176      Cu  0.58584143  0.45904910  0.57720723     0.44170
Cu177      Cu  0.64668353  0.50021685  0.58015193     0.41990
Cu178      Cu  0.59005895  0.51453191  0.63373825     0.43880
N179        N  0.55348489  0.47164949  0.60346570    -0.34430
N180        N  0.55436338  0.49303425  0.62378121    -0.28690
C181        C  0.52915018  0.49891051  0.63325701    -0.04790
C182        C  0.51174296  0.48021169  0.61799849     0.07430
C183        C  0.52793382  0.46322781  0.59945407     0.01220
H184        H  0.52380797  0.51641506  0.64879787     0.08880
H185        H  0.52152890  0.44722271  0.58271800     0.07950
N186        N  0.62798933  0.53332002  0.63661946    -0.35880
N187        N  0.64813983  0.52841196  0.61750752    -0.28060
C188        C  0.66872959  0.54617137  0.62487329    -0.03300
C189        C  0.66135225  0.56276720  0.65000618     0.05310
C190        C  0.63534352  0.55419235  0.65660966     0.03400
H191        H  0.68688574  0.54822061  0.61147401     0.08510
H192        H  0.62228041  0.56336968  0.67392055     0.07340
N193        N  0.85596451  0.93346372  0.91619155    -0.27050
N194        N  0.87842903  0.94888646  0.91573684    -0.34910
C195        C  0.88224069  0.96114800  0.94326433     0.01290
C196        C  0.86108132  0.95342111  0.96203456     0.07320
C197        C  0.84471762  0.93577132  0.94420494    -0.05780
H198        H  0.90042313  0.97241717  0.95005169     0.07990
H199        H  0.82762435  0.92309256  0.95194173     0.09190
Cu200      Cu  0.90684199  0.94633097  0.88152449     0.44170
Cu201      Cu  0.84609476  0.90507612  0.88076354     0.41990
Cu202      Cu  0.90149884  0.89018627  0.82566538     0.43880
N203        N  0.93863303  0.93340141  0.85453350    -0.34430
N204        N  0.93733044  0.91184752  0.83443955    -0.28690
C205        C  0.96234123  0.90583755  0.82438654    -0.04790
C206        C  0.98006483  0.92462247  0.83903444     0.07430
C207        C  0.96426981  0.94179903  0.85782202     0.01220
H208        H  0.96735505  0.88817374  0.80889905     0.08880
H209        H  0.97102709  0.95793190  0.87424135     0.07950
N210        N  0.86378862  0.87075604  0.82461947    -0.35880
N211        N  0.84417304  0.87571484  0.84444212    -0.28060
C212        C  0.82359075  0.85756575  0.83821415    -0.03300
C213        C  0.83060777  0.84033190  0.81342130     0.05310
C214        C  0.85605829  0.84953168  0.80520261     0.03400
H215        H  0.80510872  0.85661704  0.85121387     0.08510
H216        H  0.86856305  0.84052502  0.78727046     0.07340
N217        N  0.13637457  0.93282943  0.91107954    -0.27050
N218        N  0.11367254  0.94779433  0.91175198    -0.34910
C219        C  0.11052042  0.95968414  0.93955989     0.01290
C220        C  0.13233610  0.95219686  0.95741515     0.07320
C221        C  0.14842999  0.93506648  0.93869326    -0.05780
H222        H  0.09240515  0.97057048  0.94716674     0.07990
H223        H  0.16599209  0.92272878  0.94556619     0.09190
Cu224      Cu  0.08419348  0.94513268  0.87875167     0.44170
Cu225      Cu  0.14557697  0.90530425  0.87452038     0.41990
Cu226      Cu  0.08733204  0.88809533  0.82390153     0.43880
N227        N  0.05149141  0.93222906  0.85318477    -0.34430
N228        N  0.05198005  0.91031309  0.83348083    -0.28690
C229        C  0.02668297  0.90477072  0.82406762    -0.04790
C230        C  0.00962289  0.92421757  0.83876837     0.07430
C231        C  0.02610134  0.94128909  0.85691197     0.01220
H232        H  0.02103907  0.88706651  0.80890619     0.08880
H233        H  0.01998982  0.95793309  0.87309240     0.07950
N234        N  0.12553459  0.87032766  0.81972362    -0.35880
N235        N  0.14637686  0.87662717  0.83737813    -0.28060
C236        C  0.16735106  0.86002453  0.82867690    -0.03300
C237        C  0.15944129  0.84252466  0.80435351     0.05310
C238        C  0.13274203  0.84957706  0.79951944     0.03400
H239        H  0.18673031  0.86007217  0.83988988     0.08510
H240        H  0.11910977  0.83944033  0.78340471     0.07340
N241        N  0.85745519  0.97474457  0.04176577    -0.27050
N242        N  0.88019879  0.95986213  0.04120700    -0.34910
C243        C  0.88344610  0.94794491  0.01342576     0.01290
C244        C  0.86161570  0.95532987  0.99555146     0.07320
C245        C  0.84544303  0.97242052  0.01416658    -0.05780
H246        H  0.90159700  0.93709930  0.00586641     0.07990
H247        H  0.82785057  0.98467836  0.00723718     0.09190
Cu248      Cu  0.90944221  0.96269903  0.07444218     0.44170
Cu249      Cu  0.84810528  0.00236280  0.07801723     0.41990
Cu250      Cu  0.90561974  0.01938107  0.12985575     0.43880
N251        N  0.94196114  0.97584980  0.10014728    -0.34430
N252        N  0.94132778  0.99766204  0.11998031    -0.28690
C253        C  0.96665422  0.00345199  0.12922551    -0.04790
C254        C  0.98384929  0.98426490  0.11428994     0.07430
C255        C  0.96741312  0.96709943  0.09620406     0.01220
H256        H  0.97222062  0.02114148  0.14444146     0.08880
H257        H  0.97358122  0.95061535  0.07987392     0.07950
N258        N  0.86713154  0.03691428  0.13349726    -0.35880
N259        N  0.84668412  0.03086185  0.11511045    -0.28060
C260        C  0.82550852  0.04744282  0.12322875    -0.03300
C261        C  0.83286569  0.06436036  0.14804279     0.05310
C262        C  0.85937597  0.05741005  0.15376005     0.03400
H263        H  0.80649412  0.04793494  0.11123887     0.08510
H264        H  0.87239484  0.06734699  0.17065634     0.07340
N265        N  0.13822532  0.97349874  0.03710390    -0.27050
N266        N  0.11530896  0.95887058  0.03723183    -0.34910
C267        C  0.11131651  0.94693090  0.00958162     0.01290
C268        C  0.13278379  0.95402849  0.99099675     0.07320
C269        C  0.14955659  0.97098454  0.00912208    -0.05780
H270        H  0.09286924  0.93630264  0.00259814     0.07990
H271        H  0.16708434  0.98306949  0.00162232     0.09190
Cu272      Cu  0.08665492  0.96200008  0.07116540     0.44170
Cu273      Cu  0.14876159  0.00117184  0.07309074     0.41990
Cu274      Cu  0.09234145  0.01828302  0.12641088     0.43880
N275        N  0.05483189  0.97523357  0.09799770    -0.34430
N276        N  0.05623756  0.99690706  0.11793571    -0.28690
C277        C  0.03126056  0.00295488  0.12813783    -0.04790
C278        C  0.01344666  0.98406770  0.11373501     0.07430
C279        C  0.02917857  0.96680451  0.09493943     0.01220
H280        H  0.02632668  0.02064603  0.14362353     0.08880
H281        H  0.02236521  0.95049999  0.07873654     0.07950
N282        N  0.13049223  0.03680529  0.12815812    -0.35880
N283        N  0.15069221  0.03068362  0.10946889    -0.28060
C284        C  0.17157409  0.04827910  0.11633292    -0.03300
C285        C  0.16403125  0.06658536  0.14006865     0.05310
C286        C  0.13802311  0.05840336  0.14721916     0.03400
H287        H  0.19040393  0.04869488  0.10396271     0.08510
H288        H  0.12515588  0.06807174  0.16442381     0.07340
N289        N  0.85581104  0.47397456  0.91807896    -0.27050
N290        N  0.87840194  0.45878155  0.91819780    -0.34910
C291        C  0.88228060  0.44730183  0.94613690     0.01290
C292        C  0.86106837  0.45531001  0.96463106     0.07320
C293        C  0.84457092  0.47230222  0.94617789    -0.05780
H294        H  0.90050292  0.43631135  0.95328828     0.07990
H295        H  0.82731612  0.48491523  0.95344239     0.09190
Cu296      Cu  0.90691676  0.46046983  0.88400466     0.44170
Cu297      Cu  0.84561237  0.50116305  0.88149692     0.41990
Cu298      Cu  0.90158638  0.51534614  0.82686026     0.43880
N299        N  0.93876545  0.47274842  0.85665366    -0.34430
N300        N  0.93743227  0.49391983  0.83602216    -0.28690
C301        C  0.96240889  0.49973675  0.82569483    -0.04790
C302        C  0.98015923  0.48120933  0.84070781     0.07430
C303        C  0.96440532  0.46438677  0.86001824     0.01220
H304        H  0.96738315  0.51709092  0.80971498     0.08880
H305        H  0.97120334  0.44855355  0.87680632     0.07950
N306        N  0.86399552  0.53490689  0.82505740    -0.35880
N307        N  0.84397734  0.52995160  0.84438688    -0.28060
C308        C  0.82359931  0.54822184  0.83756069    -0.03300
C309        C  0.83129619  0.56574076  0.81314366     0.05310
C310        C  0.85683952  0.55636644  0.80555177     0.03400
H311        H  0.80506157  0.54965007  0.85040722     0.08510
H312        H  0.86970779  0.56515774  0.78778571     0.07340
N313        N  0.13646095  0.47229120  0.91210037    -0.27050
N314        N  0.11366132  0.45749481  0.91300269    -0.34910
C315        C  0.11048313  0.44581507  0.94096690     0.01290
C316        C  0.13240472  0.45329482  0.95861312     0.07320
C317        C  0.14856009  0.47018962  0.93967664    -0.05780
H318        H  0.09231098  0.43512465  0.94879269     0.07990
H319        H  0.16619433  0.48249635  0.94635428     0.09190
Cu320      Cu  0.08422402  0.46034741  0.88001726     0.44170
Cu321      Cu  0.14564206  0.49979383  0.87555641     0.41990
Cu322      Cu  0.08740439  0.51820103  0.82542703     0.43880
N323        N  0.05162205  0.47347907  0.85443351    -0.34430
N324        N  0.05209060  0.49557203  0.83481670    -0.28690
C325        C  0.02676066  0.50114486  0.82550490    -0.04790
C326        C  0.00972196  0.48156246  0.84020558     0.07430
C327        C  0.02624059  0.46436673  0.85821818     0.01220
H328        H  0.02106837  0.51901571  0.81049800     0.08880
H329        H  0.02016390  0.44760935  0.87438735     0.07950
N330        N  0.12546758  0.53677894  0.82221563    -0.35880
N331        N  0.14634485  0.52978732  0.83960887    -0.28060
C332        C  0.16725579  0.54699596  0.83192144    -0.03300
C333        C  0.15903244  0.56580114  0.80894309     0.05310
C334        C  0.13257708  0.55871432  0.80320464     0.03400
H335        H  0.18662564  0.54670877  0.84315386     0.08510
H336        H  0.11922298  0.56930511  0.78705840     0.07340
N337        N  0.85760717  0.43445510  0.04459212    -0.27050
N338        N  0.88035315  0.44936876  0.04379115    -0.34910
C339        C  0.88341353  0.46132925  0.01593210     0.01290
C340        C  0.86149581  0.45391615  0.99821568     0.07320
C341        C  0.84545254  0.43677303  0.01705435    -0.05780
H342        H  0.90157326  0.47207465  0.00814935     0.07990
H343        H  0.82793419  0.42433183  0.01025486     0.09190
Cu344      Cu  0.91002161  0.44636378  0.07659987     0.44170
Cu345      Cu  0.84857944  0.40635087  0.08076064     0.41990
Cu346      Cu  0.90659988  0.38967712  0.13209164     0.43880
N347        N  0.94266409  0.43367803  0.10249257    -0.34430
N348        N  0.94208712  0.41201656  0.12261794    -0.28690
C349        C  0.96738576  0.40660293  0.13220302    -0.04790
C350        C  0.98453362  0.42585475  0.11716049     0.07430
C351        C  0.96808167  0.44267592  0.09865423     0.01220
H352        H  0.97299083  0.38904687  0.14765256     0.08880
H353        H  0.97423567  0.45912018  0.08217704     0.07950
N354        N  0.86892388  0.36998970  0.13445448    -0.35880
N355        N  0.84821089  0.37597062  0.11643539    -0.28060
C356        C  0.82787230  0.35767404  0.12345005    -0.03300
C357        C  0.83628199  0.33903706  0.14659857     0.05310
C358        C  0.86223964  0.34778439  0.15327725     0.03400
H359        H  0.80876791  0.35715458  0.11164784     0.08510
H360        H  0.87559798  0.33822690  0.17010634     0.07340
N361        N  0.13752649  0.43139582  0.03801360    -0.27050
N362        N  0.11563078  0.44773541  0.03850925    -0.34910
C363        C  0.11221829  0.46021508  0.01094671     0.01290
C364        C  0.13306264  0.45166170  0.99214174     0.07320
C365        C  0.14878565  0.43329185  0.00997444    -0.05780
H366        H  0.09441653  0.47218733  0.00414529     0.07990
H367        H  0.16535741  0.41988070  0.00221971     0.09190
Cu368      Cu  0.08727256  0.44627208  0.07294108     0.44170
Cu369      Cu  0.14659744  0.40253167  0.07338225     0.41990
Cu370      Cu  0.09293794  0.39273688  0.13184306     0.43880
N371        N  0.05558070  0.43454923  0.10085586    -0.34430
N372        N  0.05697833  0.41398297  0.12215351    -0.28690
C373        C  0.03196276  0.40829397  0.13251872    -0.04790
C374        C  0.01414189  0.42628793  0.11686289     0.07430
C375        C  0.02990623  0.44265401  0.09714375     0.01220
H376        H  0.02700609  0.39132174  0.14894732     0.08880
H377        H  0.02309293  0.45794832  0.07982850     0.07950
N378        N  0.12970819  0.37110138  0.13173056    -0.35880
N379        N  0.14832448  0.37367971  0.11025304    -0.28060
C380        C  0.16775153  0.35382861  0.11554197    -0.03300
C381        C  0.16112405  0.33780367  0.14151049     0.05310
C382        C  0.13712219  0.34994385  0.15147118     0.03400
H383        H  0.18499279  0.35066421  0.10083961     0.08510
H384        H  0.12543331  0.34362457  0.17128217     0.07340
O385        O  0.25299365  0.73366915  0.68527543    -0.72700
O386        O  0.20966202  0.67074744  0.72596434    -0.73680
O387        O  0.20908115  0.73321371  0.72632894    -0.62300
O388        O  0.25389144  0.67080638  0.68592793    -0.70710
O389        O  0.28208856  0.67164600  0.72531598    -0.70270
O390        O  0.23741425  0.73351763  0.76539177    -0.61520
O391        O  0.23769837  0.67084705  0.76551922    -0.74030
O392        O  0.28121309  0.73432605  0.72471277    -0.72810
Cu393      Cu  0.23045935  0.70213304  0.70446184     1.04560
Cu394      Cu  0.26058398  0.70261438  0.74660985     1.04330
C395        C  0.27346030  0.74438136  0.69883727     0.93500
C396        C  0.21729756  0.66022540  0.75161191     0.92640
C397        C  0.21638265  0.74346952  0.75229930     0.84780
C398        C  0.27443734  0.66059319  0.69994293     0.91050
O399        O  0.70822200  0.73483721  0.73031704    -0.72700
O400        O  0.75057970  0.67145788  0.77165147    -0.73680
O401        O  0.75166907  0.73408212  0.77153446    -0.62300
O402        O  0.70726878  0.67217860  0.73039030    -0.70710
O403        O  0.73598383  0.67157740  0.69144560    -0.70270
O404        O  0.77981580  0.73382873  0.73220932    -0.61520
O405        O  0.77936885  0.67106944  0.73284641    -0.74030
O406        O  0.73661336  0.73416924  0.69105017    -0.72810
Cu407      Cu  0.72843732  0.70314442  0.75234071     1.04560
Cu408      Cu  0.75895499  0.70261819  0.71052921     1.04330
C409        C  0.71621273  0.74504418  0.70462297     0.93500
C410        C  0.77118846  0.66071250  0.75843039     0.92640
C411        C  0.77231476  0.74443710  0.75785197     0.84780
C412        C  0.71485078  0.66190710  0.70460979     0.91050
O413        O  0.25604835  0.17136311  0.26700012    -0.72700
O414        O  0.21346975  0.23230035  0.22182660    -0.73680
O415        O  0.21514585  0.16977119  0.22237059    -0.62300
O416        O  0.25427890  0.23438433  0.26634276    -0.70710
O417        O  0.28535997  0.23449127  0.22983214    -0.70270
O418        O  0.24556435  0.17099265  0.18522536    -0.61520
O419        O  0.24425336  0.23362467  0.18515680    -0.74030
O420        O  0.28650098  0.17192953  0.22977809    -0.72810
Cu421      Cu  0.23367184  0.20192170  0.24568725     1.04560
Cu422      Cu  0.26649815  0.20279501  0.20622180     1.04330
C423        C  0.27772200  0.16165654  0.25511968     0.93500
C424        C  0.22242899  0.24320358  0.19682835     0.92640
C425        C  0.22449288  0.15983314  0.19718907     0.84780
C426        C  0.27575890  0.24493917  0.25465879     0.91050
O427        O  0.71564928  0.17003133  0.23418612    -0.72700
O428        O  0.75593306  0.23556847  0.19324523    -0.73680
O429        O  0.75772091  0.17280975  0.19088016    -0.62300
O430        O  0.71389096  0.23219554  0.23635372    -0.70710
O431        O  0.74439945  0.23319550  0.27342943    -0.70270
O432        O  0.78671469  0.17123659  0.22958128    -0.61520
O433        O  0.78668049  0.23391100  0.23008582    -0.74030
O434        O  0.74475394  0.17059510  0.27275075    -0.72810
Cu435      Cu  0.73478655  0.20267379  0.21231466     1.04560
Cu436      Cu  0.76671049  0.20225827  0.25277790     1.04330
C437        C  0.72377541  0.16012977  0.25996442     0.93500
C438        C  0.77751124  0.24526276  0.20542244     0.92640
C439        C  0.77861820  0.16201647  0.20357202     0.84780
C440        C  0.72236824  0.24235695  0.26182228     0.91050
C441        C  0.20423166  0.31131255  0.15029334    -0.12030
C442        C  0.17630347  0.31269030  0.15484021     0.04980
C443        C  0.16376140  0.29047411  0.17251817    -0.07310
C444        C  0.17944402  0.26855193  0.18618267    -0.08060
C445        C  0.20733645  0.26730662  0.18183471    -0.02610
C446        C  0.21991091  0.28906379  0.16356863     0.04210
N447        N  0.24852560  0.28987002  0.15929821     0.66710
H448        H  0.21423226  0.32833371  0.13722018     0.15610
H449        H  0.16951425  0.25162376  0.19950151     0.15320
N450        N  0.13511976  0.28866755  0.17550918     0.74420
O451        O  0.25814190  0.29654450  0.13343644    -0.39030
O452        O  0.26401842  0.28878797  0.18216515    -0.38970
O453        O  0.12055075  0.28820726  0.15184342    -0.39680
O454        O  0.12475295  0.28268912  0.20117624    -0.39740
C455        C  0.81929897  0.26596228  0.18395636    -0.12030
C456        C  0.79205911  0.26978664  0.19086037     0.04980
C457        C  0.77910532  0.29630215  0.18261060    -0.07310
C458        C  0.79388555  0.31816970  0.16731498    -0.08060
C459        C  0.82117813  0.31430558  0.16037199    -0.02610
C460        C  0.83382772  0.28746797  0.16798180     0.04210
N461        N  0.86067804  0.28089660  0.15797664     0.66710
H462        H  0.82902498  0.24546102  0.18983376     0.15610
H463        H  0.78428717  0.33885677  0.16182424     0.15320
N464        N  0.75158338  0.30202398  0.19084304     0.74420
O465        O  0.87566805  0.26475956  0.17414061    -0.39030
O466        O  0.86791514  0.28722718  0.13103048    -0.38970
O467        O  0.74232744  0.29306902  0.21611056    -0.39680
O468        O  0.73752201  0.31925210  0.17481091    -0.39740
C469        C  0.18799047  0.58473210  0.76772277    -0.12030
C470        C  0.17443138  0.59001732  0.79523542     0.04980
C471        C  0.17467625  0.61843927  0.80814975    -0.07310
C472        C  0.18886661  0.64084260  0.79306636    -0.08060
C473        C  0.20231766  0.63568313  0.76540593    -0.02610
C474        C  0.20186023  0.60719163  0.75231272     0.04210
N475        N  0.21575813  0.60018726  0.72424369     0.66710
H476        H  0.18734580  0.56291101  0.75792319     0.15610
H477        H  0.18944699  0.66262139  0.80297508     0.15320
N478        N  0.16038416  0.62518544  0.83597925     0.74420
O479        O  0.22403637  0.57438257  0.71965679    -0.39030
O480        O  0.21712844  0.61844420  0.70254435    -0.38970
O481        O  0.15816088  0.60643697  0.85715224    -0.39680
O482        O  0.15170585  0.65083420  0.84051905    -0.39740
C483        C  0.78857839  0.58702116  0.79416097    -0.12030
C484        C  0.81614565  0.59054276  0.79968122     0.04980
C485        C  0.82874076  0.61733447  0.79164947    -0.07310
C486        C  0.81353284  0.63961895  0.77783040    -0.08060
C487        C  0.78589941  0.63631028  0.77290958    -0.02770
C488        C  0.77323797  0.60954707  0.78091887     0.04210
N489        N  0.74543862  0.60405000  0.77411368     0.66710
H490        H  0.77892217  0.56640727  0.79990727     0.15610
H491        H  0.82317255  0.66017649  0.77181543     0.15320
N492        N  0.85646582  0.62292030  0.79868873     0.74420
O493        O  0.73857253  0.57977407  0.76264651    -0.39030
O494        O  0.72743667  0.62100516  0.78405058    -0.38970
O495        O  0.87081699  0.63749214  0.78028032    -0.39680
O496        O  0.86552382  0.61717516  0.82504438    -0.39740
C497        C  0.20671845  0.08634510  0.16107432    -0.12030
C498        C  0.17969551  0.09105561  0.15338535     0.04980
C499        C  0.16787314  0.11862073  0.15957666    -0.07310
C500        C  0.18315522  0.14041561  0.17400039    -0.08060
C501        C  0.21019098  0.13584559  0.18149835    -0.02610
C502        C  0.22222567  0.10832522  0.17514133     0.04210
N503        N  0.24927181  0.10146476  0.18444185     0.66710
H504        H  0.21569765  0.06513157  0.15657632     0.15610
H505        H  0.17404298  0.16152668  0.17872026     0.15320
N506        N  0.14087272  0.12534740  0.15026967     0.74420
O507        O  0.25493022  0.07592118  0.19365952    -0.39030
O508        O  0.26815643  0.11943703  0.18000888    -0.38970
O509        O  0.12626352  0.14143576  0.16685220    -0.39680
O510        O  0.13290441  0.11877191  0.12369790    -0.39740
C511        C  0.78746735  0.10923391  0.19956186    -0.12030
C512        C  0.79283597  0.13764589  0.18879551     0.04980
C513        C  0.81068062  0.14182309  0.16396578    -0.07310
C514        C  0.82288262  0.11710066  0.15079390    -0.08060
C515        C  0.81761684  0.08869249  0.16164055    -0.02610
C516        C  0.79940706  0.08447804  0.18614853     0.04210
N517        N  0.79295369  0.05568215  0.19788049     0.66710
H518        H  0.77342016  0.10637854  0.21831868     0.15610
H519        H  0.83709181  0.11997733  0.13221078     0.15320
N520        N  0.81702425  0.17061411  0.15219040     0.74420
O521        O  0.78379052  0.05276526  0.22469781    -0.39030
O522        O  0.79398477  0.03338911  0.18083139    -0.38970
O523        O  0.81528515  0.19300735  0.16900205    -0.39680
O524        O  0.82646409  0.17352698  0.12550135    -0.39740
C525        C  0.19231908  0.80184746  0.80842888    -0.12030
C526        C  0.17479863  0.81829105  0.79000108     0.04980
C527        C  0.17082933  0.80982552  0.75915629    -0.07310
C528        C  0.18362564  0.78454605  0.74806388    -0.08060
C529        C  0.20109635  0.76794385  0.76654043    -0.02610
C530        C  0.20527213  0.77676471  0.79728994     0.04210
N531        N  0.22170532  0.76008684  0.81797171     0.66710
H532        H  0.19510169  0.80773619  0.83224779     0.15610
H533        H  0.18080014  0.77860923  0.72426561     0.15320
N534        N  0.15516287  0.82733672  0.73834088     0.74420
O535        O  0.23798436  0.77309244  0.83548153    -0.39030
O536        O  0.21672507  0.73325959  0.82249661    -0.38970
O537        O  0.15766928  0.85490479  0.73812816    -0.39680
O538        O  0.14182362  0.81519340  0.71728323    -0.39740
C539        C  0.81487026  0.81313252  0.76769580    -0.12030
C540        C  0.81530475  0.81590014  0.79966640     0.04980
C541        C  0.80118841  0.79534634  0.81780263    -0.07310
C542        C  0.78712233  0.77245144  0.80364670    -0.08060
C543        C  0.78730343  0.76914224  0.77167561    -0.02610
C544        C  0.80099523  0.79013437  0.75354938     0.04210
N545        N  0.79988356  0.78939933  0.72079467     0.66710
H546        H  0.82517568  0.82914675  0.75353719     0.15610
H547        H  0.77669329  0.75658097  0.81785318     0.15320
N548        N  0.80209065  0.79644422  0.85058093     0.74420
O549        O  0.78758132  0.80942680  0.70654801    -0.39030
O550        O  0.81545147  0.77261980  0.70624254    -0.38970
O551        O  0.78059561  0.79546693  0.86587762    -0.39680
O552        O  0.82436441  0.79498027  0.86431524    -0.39740
C553        C  0.66166333  0.61470633  0.66631523    -0.12030
C554        C  0.67564362  0.58811928  0.66333790     0.04980
C555        C  0.70224442  0.58612580  0.67425412    -0.07310
C556        C  0.71417861  0.61066787  0.68783462    -0.08060
C557        C  0.70025275  0.63725789  0.69075184    -0.02610
C558        C  0.67354969  0.63950637  0.67978129     0.04210
N559        N  0.65855544  0.66658763  0.68075310     0.66710
H560        H  0.64121182  0.61613572  0.65794894     0.15610
H561        H  0.73459013  0.60893165  0.69634158     0.15320
N562        N  0.71696239  0.55913834  0.67327309     0.74420
O563        O  0.64024191  0.67135468  0.66135627    -0.39030
O564        O  0.66183758  0.68478837  0.70214776    -0.38970
O565        O  0.72551851  0.54967100  0.64796390    -0.39680
O566        O  0.72658348  0.54870608  0.69773271    -0.39740
C567        C  0.30766986  0.58638806  0.68594947    -0.12030
C568        C  0.31765604  0.59066881  0.65632342     0.04980
C569        C  0.31387709  0.61793299  0.64151242    -0.07310
C570        C  0.29972472  0.64010276  0.65678765    -0.08060
C571        C  0.28950291  0.63594316  0.68642919    -0.02610
C572        C  0.29340948  0.60845859  0.70153304     0.04210
N573        N  0.28272707  0.60171584  0.73166929     0.66710
H574        H  0.31110231  0.56537576  0.69694132     0.15610
H575        H  0.29669626  0.66101956  0.64541662     0.15320
N576        N  0.32504466  0.62404663  0.61172913     0.74420
O577        O  0.28441109  0.57596565  0.74226488    -0.39030
O578        O  0.27144434  0.62085367  0.74797573    -0.38970
O579        O  0.32485999  0.60486626  0.59094489    -0.39680
O580        O  0.33288022  0.64965892  0.60518514    -0.39740
C581        C  0.72140490  0.28981585  0.28907337    -0.12030
C582        C  0.70713220  0.26587258  0.27717346     0.04980
C583        C  0.67875179  0.26642021  0.27724554    -0.07310
C584        C  0.66545065  0.29118915  0.28869102    -0.08060
C585        C  0.67965976  0.31541737  0.30021300    -0.02610
C586        C  0.70810237  0.31486659  0.29991539     0.04210
N587        N  0.72378505  0.34003523  0.30847739     0.66710
H588        H  0.74316298  0.28978980  0.28810990     0.15610
H589        H  0.64371384  0.29104321  0.28951890     0.15320
N590        N  0.66313811  0.24179566  0.26683052     0.74420
O591        O  0.74619022  0.33665548  0.32156778    -0.39030
O592        O  0.71743428  0.36519012  0.29871172    -0.38970
O593        O  0.67043483  0.21592124  0.27299022    -0.39680
O594        O  0.64039482  0.24586416  0.25475065    -0.39740
C595        C  0.29187970  0.31813014  0.29233366    -0.12030
C596        C  0.31897147  0.31394405  0.30004302     0.04980
C597        C  0.33131770  0.28671885  0.29366123    -0.07310
C598        C  0.31681109  0.26519936  0.27787441    -0.08060
C599        C  0.28983650  0.26934841  0.26991937    -0.02610
C600        C  0.27701465  0.29621621  0.27724601     0.04210
N601        N  0.24962885  0.30226296  0.26848213     0.66710
H602        H  0.28255216  0.33912031  0.29706983     0.15610
H603        H  0.32639846  0.24447358  0.27280860     0.15320
N604        N  0.35784882  0.27988203  0.30459876     0.74420
O605        O  0.23620405  0.32138904  0.28269022    -0.39030
O606        O  0.23977405  0.29126259  0.24448982    -0.38970
O607        O  0.36471606  0.28693752  0.33143792    -0.39680
O608        O  0.37283825  0.26292378  0.28946439    -0.39740
C609        C  0.32973257  0.11590756  0.29701104    -0.12030
C610        C  0.31861390  0.08777042  0.29411162     0.04980
C611        C  0.29362748  0.08419202  0.27914730    -0.07310
C612        C  0.28050588  0.10912684  0.26751139    -0.08060
C613        C  0.29198388  0.13714865  0.26979394    -0.02610
C614        C  0.31681173  0.14075611  0.28503912     0.04210
N615        N  0.32888152  0.16918004  0.28935563     0.66710
H616        H  0.34877110  0.11849958  0.30874547     0.15610
H617        H  0.26158050  0.10659019  0.25551395     0.15320
N618        N  0.28190872  0.05565359  0.27430619     0.74420
O619        O  0.34366392  0.17390342  0.31233342    -0.39030
O620        O  0.32679435  0.18887113  0.26915866    -0.38970
O621        O  0.25681421  0.05304321  0.27108782    -0.39680
O622        O  0.29662620  0.03361366  0.26940541    -0.39740
C623        C  0.68100624  0.11280132  0.31260442    -0.12030
C624        C  0.68101206  0.08626831  0.29644436     0.04980
C625        C  0.69565454  0.08388454  0.26876921    -0.07310
C626        C  0.70967225  0.10861172  0.25802493    -0.08060
C627        C  0.70953693  0.13524638  0.27406851    -0.02610
C628        C  0.69506015  0.13752016  0.30190576     0.04210
N629        N  0.69322230  0.16458345  0.31890482     0.66710
H630        H  0.66977584  0.11420498  0.33382703     0.15610
H631        H  0.72071890  0.10724277  0.23666946     0.15320
N632        N  0.69695700  0.05690752  0.25151497     0.74420
O633        O  0.67333241  0.16917812  0.33619349    -0.39030
O634        O  0.71215865  0.18297840  0.31879448    -0.38970
O635        O  0.67863783  0.03784662  0.25344962    -0.39680
O636        O  0.71587606  0.05273002  0.23274922    -0.39740
C637        C  0.69056148  0.82143593  0.68645844    -0.12030
C638        C  0.67586231  0.81604637  0.65971310     0.04980
C639        C  0.67438132  0.78726009  0.64779163    -0.07310
C640        C  0.68753454  0.76446447  0.66341417    -0.08060
C641        C  0.70187849  0.76973621  0.69044318    -0.02610
C642        C  0.70362028  0.79863158  0.70217679     0.04210
N643        N  0.71894259  0.80548142  0.72925834     0.66710
H644        H  0.69139476  0.84355486  0.69548521     0.15610
H645        H  0.68676091  0.74236027  0.65433998     0.15320
N646        N  0.65963377  0.78067693  0.62022631     0.74420
O647        O  0.73017657  0.83020758  0.73175334    -0.39030
O648        O  0.71869724  0.78856523  0.75217345    -0.38970
O649        O  0.65837443  0.79899875  0.59854653    -0.39680
O650        O  0.64996553  0.75535694  0.61622421    -0.39740
C651        C  0.29479415  0.82093190  0.67504832    -0.12030
C652        C  0.31849307  0.81489006  0.65894968     0.04980
C653        C  0.32689836  0.78547258  0.65528562    -0.07310
C654        C  0.31156053  0.76283420  0.66829506    -0.08060
C655        C  0.28804609  0.76890172  0.68463311    -0.02610
C656        C  0.27930516  0.79825807  0.68786790     0.04210
N657        N  0.25496202  0.80544179  0.70395878     0.66710
H658        H  0.28814976  0.84347107  0.67727551     0.15610
H659        H  0.31808459  0.74028219  0.66573765     0.15320
N660        N  0.35013298  0.77801984  0.63742838     0.74420
O661        O  0.25331295  0.82908399  0.71885401    -0.39030
O662        O  0.23404348  0.79024223  0.70018263    -0.38970
O663        O  0.37260129  0.78953567  0.64323031    -0.39680
O664        O  0.34910458  0.75674516  0.61900382    -0.39740
loop_ 
_geom_bond_atom_site_label_1 
_geom_bond_atom_site_label_2 
_geom_bond_distance 
_geom_bond_site_symmetry_2 
_ccdc_geom_bond_type 
N1            N2   1.321       .  A
N1            C5   1.350       .  A
N1           Cu9   2.084       .  S
N2            C3   1.340       .  A
N2           Cu8   2.062       .  S
C3            C4   1.379       .  A
C3            H6   1.082       .  S
C4            C5   1.387       .  A
C4           C76   1.468       .  S
C5            H7   1.082       .  S
Cu8          N11   2.062       .  S
Cu9          N19   2.086       .  S
Cu10         N12   2.072       .  S
Cu10         N18   2.073       .  S
N11          N12   1.320       .  A
N11          C15   1.340       .  A
N12          C13   1.349       .  A
C13          C14   1.386       .  A
C13          H16   1.082       .  S
C14          C15   1.382       .  A
C14          C38   1.472       .  S
C15          H17   1.082       .  S
N18          N19   1.325       .  A
N18          C22   1.343       .  A
N19          C20   1.347       .  A
C20          C21   1.382       .  A
C20          H23   1.082       .  S
C21          C22   1.379       .  A
C21         C652   1.473       .  S
C22          H24   1.082       .  S
N25          N26   1.321       .  A
N25          C29   1.350       .  A
N25         Cu33   2.079       .  S
N26          C27   1.339       .  A
N26         Cu32   2.058       .  S
C27          C28   1.379       .  A
C27          H30   1.082       .  S
C28          C29   1.386       .  A
C28          C52   1.467       .  S
C29          H31   1.082       .  S
Cu32         N35   2.058       .  S
Cu33         N43   2.081       .  S
Cu34         N36   2.078       .  S
Cu34         N42   2.079       .  S
N35          N36   1.320       .  A
N35          C39   1.340       .  A
N36          C37   1.349       .  A
C37          C38   1.387       .  A
C37          H40   1.082       .  S
C38          C39   1.381       .  A
C39          H41   1.082       .  S
N42          N43   1.326       .  A
N42          C46   1.344       .  A
N43          C44   1.346       .  A
C44          C45   1.380       .  A
C44          H47   1.082       .  S
C45          C46   1.379       .  A
C45         C638   1.469       .  S
C46          H48   1.082       .  S
N49          N50   1.321       .  A
N49          C53   1.349       .  A
N49         Cu57   2.078       .  S
N50          C51   1.340       .  A
N50         Cu56   2.060       .  S
C51          C52   1.380       .  A
C51          H54   1.082       .  S
C52          C53   1.386       .  A
C53          H55   1.082       .  S
Cu56         N59   2.060       .  S
Cu57         N67   2.080   1_565  S
Cu58         N60   2.079   1_545  S
Cu58         N66   2.081       .  S
N59          N60   1.320       .  A
N59          C63   1.340       .  A
N60          C61   1.350   1_565  A
C61          C62   1.388   1_545  A
C61          H64   1.082       .  S
C62          C63   1.381       .  A
C62          C86   1.473       .  S
C63          H65   1.082       .  S
N66          N67   1.326       .  A
N66          C70   1.345       .  A
N67          C68   1.345       .  A
C68          C69   1.380       .  A
C68          H71   1.082       .  S
C69          C70   1.381       .  A
C69         C624   1.470       .  S
C70          H72   1.082       .  S
N73          N74   1.321       .  A
N73          C77   1.350       .  A
N73         Cu81   2.083       .  S
N74          C75   1.340       .  A
N74         Cu80   2.062       .  S
C75          C76   1.379       .  A
C75          H78   1.082       .  S
C76          C77   1.387       .  A
C77          H79   1.082       .  S
Cu80         N83   2.062       .  S
Cu81         N91   2.084   1_565  S
Cu82         N84   2.076   1_545  S
Cu82         N90   2.077       .  S
N83          N84   1.320       .  A
N83          C87   1.340       .  A
N84          C85   1.349   1_565  A
C85          C86   1.387   1_545  A
C85          H88   1.082       .  S
C86          C87   1.382       .  A
C87          H89   1.082       .  S
N90          N91   1.325       .  A
N90          C94   1.343       .  A
N91          C92   1.347       .  A
C92          C93   1.383       .  A
C92          H95   1.082       .  S
C93          C94   1.380       .  A
C93         C610   1.475       .  S
C94          H96   1.082       .  S
N97          N98   1.321       .  A
N97         C101   1.350       .  A
N97        Cu105   2.078       .  S
N98          C99   1.340       .  A
N98        Cu104   2.061       .  S
C99         C100   1.379       .  A
C99         H102   1.082       .  S
C100        C101   1.385       .  A
C100        C148   1.467       .  S
C101        H103   1.082       .  S
Cu104       N107   2.061       .  S
Cu105       N115   2.080       .  S
Cu106       N108   2.079       .  S
Cu106       N114   2.081       .  S
N107        N108   1.320       .  A
N107        C111   1.340       .  A
N108        C109   1.350       .  A
C109        C110   1.388       .  A
C109        H112   1.082       .  S
C110        C111   1.382       .  A
C110        C134   1.474       .  S
C111        H113   1.082       .  S
N114        N115   1.325       .  A
N114        C118   1.343       .  A
N115        C116   1.346       .  A
C116        C117   1.383       .  A
C116        H119   1.082       .  S
C117        C118   1.383       .  A
C117        C596   1.480       .  S
C118        H120   1.082       .  S
N121        N122   1.321       .  A
N121        C125   1.349       .  A
N121       Cu129   2.076       .  S
N122        C123   1.340       .  A
N122       Cu128   2.061       .  S
C123        C124   1.380       .  A
C123        H126   1.082       .  S
C124        C125   1.385       .  A
C124        C172   1.466       .  S
C125        H127   1.082       .  S
Cu128       N131   2.061       .  S
Cu129       N139   2.078       .  S
Cu130       N132   2.080       .  S
Cu130       N138   2.081       .  S
N131        N132   1.320       .  A
N131        C135   1.340       .  A
N132        C133   1.350       .  A
C133        C134   1.388       .  A
C133        H136   1.082       .  S
C134        C135   1.381       .  A
C135        H137   1.082       .  S
N138        N139   1.324       .  A
N138        C142   1.344       .  A
N139        C140   1.345       .  A
C140        C141   1.385       .  A
C140        H143   1.082       .  S
C141        C142   1.386       .  A
C141        C585   1.485       .  S
C142        H144   1.082       .  S
N145        N146   1.321       .  A
N145        C149   1.350       .  A
N145       Cu153   2.078       .  S
N146        C147   1.340       .  A
N146       Cu152   2.060       .  S
C147        C148   1.380       .  A
C147        H150   1.082       .  S
C148        C149   1.386       .  A
C149        H151   1.082       .  S
Cu152       N155   2.060       .  S
Cu153       N163   2.080       .  S
Cu154       N156   2.077       .  S
Cu154       N162   2.078       .  S
N155        N156   1.320       .  A
N155        C159   1.340       .  A
N156        C157   1.349       .  A
C157        C158   1.387       .  A
C157        H160   1.082       .  S
C158        C159   1.381       .  A
C158        C182   1.472       .  S
C159        H161   1.082       .  S
N162        N163   1.326       .  A
N162        C166   1.345       .  A
N163        C164   1.345       .  A
C164        C165   1.381       .  A
C164        H167   1.082       .  S
C165        C166   1.379       .  A
C165        C568   1.472       .  S
C166        H168   1.082       .  S
N169        N170   1.321       .  A
N169        C173   1.349       .  A
N169       Cu177   2.078       .  S
N170        C171   1.340       .  A
N170       Cu176   2.060       .  S
C171        C172   1.379       .  A
C171        H174   1.082       .  S
C172        C173   1.385       .  A
C173        H175   1.082       .  S
Cu176       N179   2.060       .  S
Cu177       N187   2.080       .  S
Cu178       N180   2.075       .  S
Cu178       N186   2.077       .  S
N179        N180   1.320       .  A
N179        C183   1.340       .  A
N180        C181   1.349       .  A
C181        C182   1.387       .  A
C181        H184   1.082       .  S
C182        C183   1.381       .  A
C183        H185   1.082       .  S
N186        N187   1.324       .  A
N186        C190   1.343       .  A
N187        C188   1.345       .  A
C188        C189   1.384       .  A
C188        H191   1.081       .  S
C189        C190   1.383       .  A
C189        C554   1.477       .  S
C190        H192   1.082       .  S
N193        N194   1.321       .  A
N193        C197   1.349       .  A
N193       Cu201   2.078       .  S
N194        C195   1.340       .  A
N194       Cu200   2.061       .  S
C195        C196   1.380       .  A
C195        H198   1.082       .  S
C196        C197   1.385       .  A
C196        C244   1.466       .  S
C197        H199   1.082       .  S
Cu200       N203   2.060       .  S
Cu201       N211   2.080       .  S
Cu202       N204   2.075       .  S
Cu202       N210   2.076       .  S
N203        N204   1.320       .  A
N203        C207   1.340       .  A
N204        C205   1.349       .  A
C205        C206   1.387       .  A
C205        H208   1.082       .  S
C206        C207   1.381       .  A
C206        C230   1.472   1_655  S
C207        H209   1.082       .  S
N210        N211   1.325       .  A
N210        C214   1.344       .  A
N211        C212   1.345       .  A
C212        C213   1.384       .  A
C212        H215   1.082       .  S
C213        C214   1.382       .  A
C213        C540   1.478       .  S
C214        H216   1.082       .  S
N217        N218   1.321       .  A
N217        C221   1.351       .  A
N217       Cu225   2.084       .  S
N218        C219   1.340       .  A
N218       Cu224   2.060       .  S
C219        C220   1.379       .  A
C219        H222   1.082       .  S
C220        C221   1.387       .  A
C220        C268   1.469       .  S
C221        H223   1.082       .  S
Cu224       N227   2.060       .  S
Cu225       N235   2.086       .  S
Cu226       N228   2.074       .  S
Cu226       N234   2.076       .  S
N227        N228   1.320       .  A
N227        C231   1.340       .  A
N228        C229   1.349       .  A
C229        C230   1.387       .  A
C229        H232   1.082       .  S
C230        C231   1.381       .  A
C231        H233   1.082       .  S
N234        N235   1.324       .  A
N234        C238   1.344       .  A
N235        C236   1.345       .  A
C236        C237   1.387       .  A
C236        H239   1.082       .  S
C237        C238   1.384       .  A
C237        C526   1.484       .  S
C238        H240   1.082       .  S
N241        N242   1.321       .  A
N241        C245   1.349       .  A
N241       Cu249   2.078   1_565  S
N242        C243   1.340       .  A
N242       Cu248   2.060       .  S
C243        C244   1.379   1_554  A
C243        H246   1.082       .  S
C244        C245   1.385   1_556  A
C245        H247   1.082       .  S
Cu248       N251   2.060       .  S
Cu249       N259   2.080       .  S
Cu250       N252   2.081   1_545  S
Cu250       N258   2.083       .  S
N251        N252   1.320       .  A
N251        C255   1.340       .  A
N252        C253   1.350   1_565  A
C253        C254   1.388   1_545  A
C253        H256   1.082       .  S
C254        C255   1.381       .  A
C254        C278   1.474   1_655  S
C255        H257   1.082       .  S
N258        N259   1.326       .  A
N258        C262   1.345       .  A
N259        C260   1.346       .  A
C260        C261   1.381       .  A
C260        H263   1.082       .  S
C261        C262   1.380       .  A
C261        C515   1.471       .  S
C262        H264   1.082       .  S
N265        N266   1.321       .  A
N265        C269   1.351       .  A
N265       Cu273   2.084   1_565  S
N266        C267   1.340       .  A
N266       Cu272   2.062       .  S
C267        C268   1.380   1_554  A
C267        H270   1.082       .  S
C268        C269   1.387   1_556  A
C269        H271   1.082       .  S
Cu272       N275   2.062       .  S
Cu273       N283   2.086       .  S
Cu274       N276   2.078   1_545  S
Cu274       N282   2.080       .  S
N275        N276   1.320       .  A
N275        C279   1.340       .  A
N276        C277   1.350   1_565  A
C277        C278   1.387   1_545  A
C277        H280   1.082       .  S
C278        C279   1.382       .  A
C279        H281   1.082       .  S
N282        N283   1.325       .  A
N282        C286   1.344       .  A
N283        C284   1.347       .  A
C284        C285   1.384       .  A
C284        H287   1.082       .  S
C285        C286   1.383       .  A
C285        C498   1.481       .  S
C286        H288   1.082       .  S
N289        N290   1.321       .  A
N289        C293   1.350       .  A
N289       Cu297   2.082       .  S
N290        C291   1.340       .  A
N290       Cu296   2.061       .  S
C291        C292   1.379       .  A
C291        H294   1.082       .  S
C292        C293   1.386       .  A
C292        C340   1.467       .  S
C293        H295   1.082       .  S
Cu296       N299   2.061       .  S
Cu297       N307   2.084       .  S
Cu298       N300   2.073       .  S
Cu298       N306   2.075       .  S
N299        N300   1.320       .  A
N299        C303   1.340       .  A
N300        C301   1.349       .  A
C301        C302   1.386       .  A
C301        H304   1.082       .  S
C302        C303   1.382       .  A
C302        C326   1.472   1_655  S
C303        H305   1.082       .  S
N306        N307   1.325       .  A
N306        C310   1.343       .  A
N307        C308   1.346       .  A
C308        C309   1.384       .  A
C308        H311   1.082       .  S
C309        C310   1.382       .  A
C309        C484   1.480       .  S
C310        H312   1.082       .  S
N313        N314   1.321       .  A
N313        C317   1.349       .  A
N313       Cu321   2.077       .  S
N314        C315   1.340       .  A
N314       Cu320   2.059       .  S
C315        C316   1.379       .  A
C315        H318   1.082       .  S
C316        C317   1.385       .  A
C316        C364   1.466       .  S
C317        H319   1.082       .  S
Cu320       N323   2.059       .  S
Cu321       N331   2.079       .  S
Cu322       N324   2.078       .  S
Cu322       N330   2.080       .  S
N323        N324   1.320       .  A
N323        C327   1.340       .  A
N324        C325   1.349       .  A
C325        C326   1.387       .  A
C325        H328   1.082       .  S
C326        C327   1.381       .  A
C327        H329   1.082       .  S
N330        N331   1.326       .  A
N330        C334   1.345       .  A
N331        C332   1.345       .  A
C332        C333   1.380       .  A
C332        H335   1.082       .  S
C333        C334   1.379       .  A
C333        C470   1.470       .  S
C334        H336   1.082       .  S
N337        N338   1.321       .  A
N337        C341   1.350       .  A
N337       Cu345   2.080       .  S
N338        C339   1.340       .  A
N338       Cu344   2.062       .  S
C339        C340   1.380   1_554  A
C339        H342   1.082       .  S
C340        C341   1.386   1_556  A
C341        H343   1.082       .  S
Cu344       N347   2.062       .  S
Cu345       N355   2.081       .  S
Cu346       N348   2.080       .  S
Cu346       N354   2.081       .  S
N347        N348   1.320       .  A
N347        C351   1.340       .  A
N348        C349   1.350       .  A
C349        C350   1.388       .  A
C349        H352   1.082       .  S
C350        C351   1.382       .  A
C350        C374   1.474   1_655  S
C351        H353   1.082       .  S
N354        N355   1.325       .  A
N354        C358   1.344       .  A
N355        C356   1.346       .  A
C356        C357   1.383       .  A
C356        H359   1.082       .  S
C357        C358   1.384       .  A
C357        C459   1.481       .  S
C358        H360   1.082       .  S
N361        N362   1.321       .  A
N361        C365   1.349       .  A
N361       Cu369   2.076       .  S
N362        C363   1.340       .  A
N362       Cu368   2.063       .  S
C363        C364   1.380   1_554  A
C363        H366   1.082       .  S
C364        C365   1.385   1_556  A
C365        H367   1.082       .  S
Cu368       N371   2.063       .  S
Cu369       N379   2.078       .  S
Cu370       N372   2.079       .  S
Cu370       N378   2.080       .  S
N371        N372   1.320       .  A
N371        C375   1.341       .  A
N372        C373   1.350       .  A
C373        C374   1.387       .  A
C373        H376   1.082       .  S
C374        C375   1.382       .  A
C375        H377   1.082       .  S
N378        N379   1.323       .  A
N378        C382   1.343       .  A
N379        C380   1.344       .  A
C380        C381   1.387       .  A
C380        H383   1.082       .  S
C381        C382   1.388       .  A
C381        C442   1.489       .  S
C382        H384   1.081       .  S
O385       Cu393   2.004       .  S
O385        C395   1.276       .  A
O386       Cu393   1.998       .  S
O386        C396   1.275       .  A
O387       Cu393   2.015       .  S
O387        C397   1.280       .  A
O388       Cu393   2.015       .  S
O388        C398   1.279       .  A
O389       Cu394   2.003       .  S
O389        C398   1.276       .  A
O390       Cu394   1.999       .  S
O390        C397   1.276       .  A
O391       Cu394   2.017       .  S
O391        C396   1.279       .  A
O392       Cu394   2.012       .  S
O392        C395   1.278       .  A
Cu393      Cu394   2.374       .  S
C395        C655   1.468       .  S
C396        C473   1.472       .  S
C397        C529   1.488       .  S
C398        C571   1.476       .  S
O399       Cu407   2.005       .  S
O399        C409   1.277       .  A
O400       Cu407   2.002       .  S
O400        C410   1.276       .  A
O401       Cu407   2.008       .  S
O401        C411   1.278       .  A
O402       Cu407   2.006       .  S
O402        C412   1.277       .  A
O403       Cu408   2.002       .  S
O403        C412   1.277       .  A
O404       Cu408   2.001       .  S
O404        C411   1.276       .  A
O405       Cu408   2.011       .  S
O405        C410   1.278       .  A
O406       Cu408   2.006       .  S
O406        C409   1.277       .  A
Cu407      Cu408   2.375       .  S
C409        C641   1.469       .  S
C410        C487   1.473       .  S
C411        C543   1.480       .  S
C412        C557   1.469       .  S
O413       Cu421   2.011       .  S
O413        C423   1.277       .  A
O414       Cu421   2.002       .  S
O414        C424   1.278       .  A
O415       Cu421   2.010       .  S
O415        C425   1.278       .  A
O416       Cu421   2.015       .  S
O416        C426   1.278       .  A
O417       Cu422   2.009       .  S
O417        C426   1.278       .  A
O418       Cu422   2.008       .  S
O418        C425   1.277       .  A
O419       Cu422   2.011       .  S
O419        C424   1.278       .  A
O420       Cu422   2.006       .  S
O420        C423   1.277       .  A
Cu421      Cu422   2.375       .  S
C423        C613   1.470       .  S
C424        C445   1.482       .  S
C425        C501   1.475       .  S
C426        C599   1.475       .  S
O427       Cu435   2.006       .  S
O427        C437   1.277       .  A
O428       Cu435   2.010       .  S
O428        C438   1.278       .  A
O429       Cu435   2.010       .  S
O429        C439   1.277       .  A
O430       Cu435   2.001       .  S
O430        C440   1.277       .  A
O431       Cu436   2.011       .  S
O431        C440   1.278       .  A
O432       Cu436   2.006       .  S
O432        C439   1.277       .  A
O433       Cu436   2.010       .  S
O433        C438   1.278       .  A
O434       Cu436   2.007       .  S
O434        C437   1.277       .  A
Cu435      Cu436   2.376       .  S
C437        C627   1.471       .  S
C438        C456   1.474       .  S
C439        C512   1.468       .  S
C440        C582   1.476       .  S
C441        C442   1.406       .  A
C441        C446   1.404       .  A
C441        H448   1.083       .  S
C442        C443   1.416       .  A
C443        C444   1.401       .  A
C443        N450   1.434       .  S
C444        C445   1.403       .  A
C444        H449   1.084       .  S
C445        C446   1.416       .  A
C446        N447   1.437       .  S
N447        O451   1.263       .  A
N447        O452   1.262       .  A
N450        O453   1.262       .  A
N450        O454   1.263       .  A
C455        C456   1.400       .  A
C455        C460   1.402       .  A
C455        H462   1.083       .  S
C456        C457   1.416       .  A
C457        C458   1.406       .  A
C457        N464   1.441       .  S
C458        C459   1.404       .  A
C458        H463   1.084       .  S
C459        C460   1.415       .  A
C460        N461   1.438       .  S
N461        O465   1.263       .  A
N461        O466   1.263       .  A
N464        O467   1.262       .  A
N464        O468   1.263       .  A
C469        C470   1.399       .  A
C469        C474   1.405       .  A
C469        H476   1.084       .  S
C470        C471   1.414       .  A
C471        C472   1.404       .  A
C471        N478   1.442       .  S
C472        C473   1.401       .  A
C472        H477   1.084       .  S
C473        C474   1.420       .  A
C474        N475   1.444       .  S
N475        O479   1.263       .  A
N475        O480   1.261       .  A
N478        O481   1.262       .  A
N478        O482   1.263       .  A
C483        C484   1.403       .  A
C483        C488   1.403       .  A
C483        H490   1.084       .  S
C484        C485   1.416       .  A
C485        C486   1.402       .  A
C485        N492   1.437       .  S
C486        C487   1.401       .  A
C486        H491   1.084       .  S
C487        C488   1.416       .  A
C488        N489   1.438       .  S
N489        O493   1.263       .  A
N489        O494   1.261       .  A
N492        O495   1.263       .  A
N492        O496   1.263       .  A
C497        C498   1.403       .  A
C497        C502   1.407       .  A
C497        H504   1.084       .  S
C498        C499   1.414       .  A
C499        C500   1.402       .  A
C499        N506   1.437       .  S
C500        C501   1.401       .  A
C500        H505   1.084       .  S
C501        C502   1.418       .  A
C502        N503   1.441       .  S
N503        O507   1.263       .  A
N503        O508   1.261       .  A
N506        O509   1.263       .  A
N506        O510   1.263       .  A
C511        C512   1.402       .  A
C511        C516   1.405       .  A
C511        H518   1.084       .  S
C512        C513   1.414       .  A
C513        C514   1.405       .  A
C513        N520   1.443       .  S
C514        C515   1.402       .  A
C514        H519   1.084       .  S
C515        C516   1.415       .  A
C516        N517   1.444       .  S
N517        O521   1.263       .  A
N517        O522   1.262       .  A
N520        O523   1.262       .  A
N520        O524   1.263       .  A
C525        C526   1.403       .  A
C525        C530   1.401       .  A
C525        H532   1.083       .  S
C526        C527   1.415       .  A
C527        C528   1.404       .  A
C527        N534   1.438       .  S
C528        C529   1.406       .  A
C528        H533   1.083       .  S
C529        C530   1.417       .  A
C530        N531   1.435       .  S
N531        O535   1.263       .  A
N531        O536   1.263       .  A
N534        O537   1.263       .  A
N534        O538   1.263       .  A
C539        C540   1.402       .  A
C539        C544   1.400       .  A
C539        H546   1.084       .  S
C540        C541   1.412       .  A
C541        C542   1.401       .  A
C541        N548   1.433       .  S
C542        C543   1.404       .  A
C542        H547   1.084       .  S
C543        C544   1.415       .  A
C544        N545   1.431       .  S
N545        O549   1.262       .  A
N545        O550   1.262       .  A
N548        O551   1.262       .  A
N548        O552   1.262       .  A
C553        C554   1.404       .  A
C553        C558   1.406       .  A
C553        H560   1.084       .  S
C554        C555   1.410       .  A
C555        C556   1.399       .  A
C555        N562   1.433       .  S
C556        C557   1.403       .  A
C556        H561   1.085       .  S
C557        C558   1.417       .  A
C558        N559   1.444       .  S
N559        O563   1.263       .  A
N559        O564   1.261       .  A
N562        O565   1.261       .  A
N562        O566   1.262       .  A
C567        C568   1.399       .  A
C567        C572   1.408       .  A
C567        H574   1.084       .  S
C568        C569   1.412       .  A
C569        C570   1.402       .  A
C569        N576   1.440       .  S
C570        C571   1.403       .  A
C570        H575   1.084       .  S
C571        C572   1.428       .  A
C572        N573   1.451       .  S
N573        O577   1.263       .  A
N573        O578   1.260       .  A
N576        O579   1.262       .  A
N576        O580   1.263       .  A
C581        C582   1.403       .  A
C581        C586   1.404       .  A
C581        H588   1.084       .  S
C582        C583   1.413       .  A
C583        C584   1.402       .  A
C583        N590   1.440       .  S
C584        C585   1.405       .  A
C584        H589   1.083       .  S
C585        C586   1.416       .  A
C586        N587   1.437       .  S
N587        O591   1.263       .  A
N587        O592   1.263       .  A
N590        O593   1.263       .  A
N590        O594   1.263       .  A
C595        C596   1.403       .  A
C595        C600   1.408       .  A
C595        H602   1.084       .  S
C596        C597   1.413       .  A
C597        C598   1.400       .  A
C597        N604   1.439       .  S
C598        C599   1.400       .  A
C598        H603   1.082       .  S
C599        C600   1.419       .  A
C600        N601   1.443       .  S
N601        O605   1.263       .  A
N601        O606   1.261       .  A
N604        O607   1.263       .  A
N604        O608   1.263       .  A
C609        C610   1.403       .  A
C609        C614   1.403       .  A
C609        H616   1.084       .  S
C610        C611   1.415       .  A
C611        C612   1.405       .  A
C611        N618   1.441       .  S
C612        C613   1.403       .  A
C612        H617   1.084       .  S
C613        C614   1.414       .  A
C614        N615   1.441       .  S
N615        O619   1.263       .  A
N615        O620   1.261       .  A
N618        O621   1.263       .  A
N618        O622   1.262       .  A
C623        C624   1.402       .  A
C623        C628   1.405       .  A
C623        H630   1.084       .  S
C624        C625   1.415       .  A
C625        C626   1.405       .  A
C625        N632   1.445       .  S
C626        C627   1.403       .  A
C626        H631   1.084       .  S
C627        C628   1.417       .  A
C628        N629   1.444       .  S
N629        O633   1.263       .  A
N629        O634   1.261       .  A
N632        O635   1.262       .  A
N632        O636   1.263       .  A
C637        C638   1.400       .  A
C637        C642   1.404       .  A
C637        H644   1.084       .  S
C638        C639   1.415       .  A
C639        C640   1.404       .  A
C639        N646   1.442       .  S
C640        C641   1.400       .  A
C640        H645   1.084       .  S
C641        C642   1.417       .  A
C642        N643   1.442       .  S
N643        O647   1.263       .  A
N643        O648   1.261       .  A
N646        O649   1.262       .  A
N646        O650   1.263       .  A
C651        C652   1.401       .  A
C651        C656   1.404       .  A
C651        H658   1.084       .  S
C652        C653   1.414       .  A
C653        C654   1.402       .  A
C653        N660   1.436       .  S
C654        C655   1.399       .  A
C654        H659   1.084       .  S
C655        C656   1.415       .  A
C656        N657   1.439       .  S
N657        O661   1.263       .  A
N657        O662   1.262       .  A
N660        O663   1.261       .  A
N660        O664   1.262       .  A
