geometry optimzed in LAMMPS
_audit_creation_date              2020-11-30 
_audit_creation_method            'lammps2cif' 
_symmetry_space_group_name_H-M    'P1' 
_symmetry_Int_Tables_number       1 
_symmetry_cell_setting            triclinic 
loop_ 
_symmetry_equiv_pos_as_xyz 
  x,y,z 
_cell_length_a                    41.8356187 
_cell_length_b                    41.91175802327737 
_cell_length_c                    27.89280936130656 
_cell_angle_alpha                 89.56208225806222 
_cell_angle_beta                  90.70616637023306 
_cell_angle_gamma                 119.79238715847579 
loop_ 
_atom_site_label 
_atom_site_type_symbol 
_atom_site_fract_x 
_atom_site_fract_y 
_atom_site_fract_z 
_atom_site_charge 
C1          C  0.50319028  0.15455190  0.30642271     0.87700
C2          C  0.02787807  0.13827868  0.30094728    -0.52500
C3          C  0.03050650  0.12785940  0.25500198     0.10600
C4          C  0.49628849  0.12318216  0.22347569     0.21600
C5          C  0.50817985  0.17944630  0.26316108    -0.53200
C6          C  0.00355182  0.16321237  0.21965809     0.10700
C7          C  0.46664081  0.12129158  0.29983346    -0.52800
C8          C  0.46035900  0.10316390  0.25648052     0.11300
H9          H  0.04693684  0.14135984  0.32983406     0.15800
H10         H  0.49313081  0.10963094  0.18833086     0.01600
H11         H  0.51351644  0.20747968  0.26690970     0.16100
H12         H  0.44839943  0.11209286  0.33030263     0.15900
C13         C  0.12803977  0.16508340  0.28550606     0.87700
C14         C  0.11123559  0.12406956  0.29552604    -0.52500
C15         C  0.09602092  0.10099909  0.25675433     0.10600
C16         C  0.08949235  0.12218515  0.21501344     0.21600
C17         C  0.15018660  0.17308480  0.24036356    -0.53200
C18         C  0.12996725  0.15295889  0.20196830     0.10700
C19         C  0.09652439  0.17058753  0.26962144    -0.52800
C20         C  0.07113523  0.14358552  0.23925925     0.11300
H21         H  0.11495555  0.11484077  0.33055123     0.15800
H22         H  0.07340799  0.10463032  0.18430287     0.01600
H23         H  0.17804006  0.19623443  0.23742614     0.16100
H24         H  0.09126220  0.19004139  0.28869486     0.15900
C25         C  0.13001154  0.03397618  0.29033844     0.87700
C26         C  0.09059476  0.00462410  0.29653956    -0.52500
C27         C  0.06720569  0.99904902  0.25861945     0.10600
C28         C  0.08615245  0.03205783  0.22169887     0.21600
C29         C  0.14209402  0.02908058  0.24147929    -0.53200
C30         C  0.12069456  0.02949602  0.20469662     0.10700
C31         C  0.12842917  0.06858240  0.28677974    -0.52800
C32         C  0.10356403  0.06858435  0.25391064     0.11300
H33         H  0.08261431  0.48889422  0.32960336     0.15800
H34         H  0.06769421  0.03133496  0.19229656     0.01600
H35         H  0.16688705  0.02731746  0.23616164     0.16100
H36         H  0.14645905  0.09129279  0.30987083     0.15900
C37         C  0.50114918  0.39527289  0.28034613     0.87700
C38         C  0.46840258  0.40050412  0.28618584    -0.52500
C39         C  0.46569497  0.42532027  0.25583926     0.10600
C40         C  0.99903726  0.44248412  0.21983239     0.21600
C41         C  0.99921732  0.38357251  0.22921415    -0.53200
C42         C  0.49840203  0.40757139  0.19657297     0.10700
C43         C  0.03426371  0.43286422  0.28269984    -0.52800
C44         C  0.03443216  0.45961833  0.25338513     0.11300
H45         H  0.44793959  0.38269852  0.31161271     0.15800
H46         H  0.99821684  0.46212710  0.19363362     0.01600
H47         H  0.99921256  0.35850072  0.21937970     0.16100
H48         H  0.05695030  0.43615689  0.30529476     0.15900
C49         C  0.36881923  0.40186824  0.29088340     0.87700
C50         C  0.36923880  0.43748664  0.28625789    -0.52500
C51         C  0.39432502  0.46261138  0.25448161     0.10600
C52         C  0.41191782  0.44347244  0.22276613     0.21600
C53         C  0.35674366  0.38432612  0.24224602    -0.53200
C54         C  0.37753375  0.40586902  0.20555118     0.10700
C55         C  0.40856348  0.41237285  0.29775535    -0.52800
C56         C  0.43166911  0.43026415  0.26027987     0.11300
H57         H  0.35101963  0.44214300  0.30882719     0.15800
H58         H  0.42996848  0.46094044  0.19345775     0.01600
H59         H  0.33221909  0.35765063  0.23692366     0.16100
H60         H  0.41680314  0.40491861  0.33098765     0.15900
C61         C  0.36749729  0.02872251  0.29505357     0.87700
C62         C  0.39555915  0.06720602  0.28146101    -0.52500
C63         C  0.42109112  0.07022273  0.24814679     0.10600
C64         C  0.40681882  0.03152147  0.22167153     0.21600
C65         C  0.34474090  0.01410583  0.24953591    -0.53200
C66         C  0.36515777  0.01788444  0.20999237     0.10700
C67         C  0.38961867  0.00910934  0.30215474    -0.52800
C68         C  0.40404448  0.00325044  0.26118854     0.11300
H69         H  0.39632968  0.09013326  0.30028030     0.15800
H70         H  0.42339639  0.03305276  0.19008102     0.01600
H71         H  0.31581583  0.00645097  0.24761436     0.16100
H72         H  0.38822766  0.49550138  0.33602620     0.15900
O73         O  0.25601660  0.10140997  0.45265899    -0.78900
O74         O  0.27714450  0.02617132  0.10978436    -0.78900
O75         O  0.16977126  0.02027681  0.04760178    -0.78600
O76         O  0.32409040  0.07417003  0.52326382    -0.78900
O77         O  0.20970592  0.03050117  0.10594541    -0.79000
O78         O  0.31567048  0.09736226  0.45873372    -0.78900
O79         O  0.30498940  0.01054262  0.05572708    -0.78900
O80         O  0.22228077  0.08276782  0.01554425    -0.79000
C81         C  0.24198643  0.10812127  0.48756152     1.10800
C82         C  0.30279107  0.01957520  0.09828224     1.10700
C83         C  0.17922140  0.02742819  0.09135232     1.10800
C84         C  0.33378060  0.10086285  0.49619257     1.10700
O85         O  0.28101164  0.02541205  0.41365961    -0.78900
O86         O  0.17749548  0.46434707  0.05017811    -0.79000
O87         O  0.17185368  0.03617597  0.44978318    -0.78900
O88         O  0.25217802  0.47588292  0.97868445    -0.78900
O89         O  0.23953327  0.46043140  0.05418498    -0.79000
O90         O  0.21405335  0.02946316  0.41039377    -0.78900
O91         O  0.32454505  0.02489560  0.45899715    -0.78900
O92         O  0.18441534  0.48018744  0.97455113    -0.79000
Co93       Co  0.26421793  0.05925713  0.44383858     1.51500
Co94       Co  0.22785747  0.49875204  0.07637734     1.51700
Co95       Co  0.20513398  0.03251804  0.99316072     1.51600
Co96       Co  0.28781388  0.02642832  0.49793558     1.51500
O97         O  0.24912116  0.03509071  0.01848163    -1.40800
C98         C  0.31147632  0.02488188  0.41766879     1.10700
C99         C  0.16862442  0.45637685  0.00661207     1.10800
C100        C  0.18519265  0.03306583  0.41065252     1.10700
C101        C  0.24324446  0.45255831  0.01170763     1.10700
O102        O  0.43285079  0.21217442  0.45992594    -0.78900
O103        O  0.00044445  0.32339126  0.10079183    -0.78900
O104        O  0.01738423  0.22431022  0.06411368    -0.78900
O105        O  0.45100269  0.31028513  0.00800064    -0.78900
O106        O  0.00231165  0.25550525  0.11311712    -0.79000
O107        O  0.43035039  0.27241044  0.44897562    -0.78900
O108        O  0.51309927  0.36168443  0.03991533    -0.78900
O109        O  0.45416035  0.20567480  0.02753403    -0.79000
C110        C  0.42826093  0.19522244  0.49852513     1.10800
C111        C  0.00432723  0.35345787  0.08361086     1.10700
C112        C  0.00785292  0.22864383  0.10549980     1.10800
C113        C  0.42475066  0.28906553  0.48194040     1.10700
O114        O  0.50319493  0.31059971  0.40532777    -0.78900
O115        O  0.06924657  0.28883674  0.05854552    -0.79000
O116        O  0.00392580  0.20087011  0.46906508    -0.78900
O117        O  0.05320637  0.34258768  0.97171648    -0.78900
O118        O  0.06746385  0.35163582  0.04808012    -0.79000
O119        O  0.50474779  0.24190486  0.41740594    -0.78900
O120        O  0.49918567  0.35617388  0.43958161    -0.78900
O121        O  0.05381384  0.27329537  0.98353448    -0.79000
Co122      Co  0.47201771  0.26234865  0.44291467     1.51500
Co123      Co  0.03154954  0.30284821  0.07636255     1.51700
Co124      Co  0.00285198  0.23973922  0.00293002     1.51600
Co125      Co  0.50085908  0.32424600  0.98760960     1.51500
O126        O  0.99580275  0.28042139  0.01760414    -1.40800
C127        C  0.50155246  0.34052184  0.40197831     1.10700
C128        C  0.07735264  0.28408123  0.01667728     1.10800
C129        C  0.50560530  0.21193959  0.42625078     1.10700
C130        C  0.07613305  0.35975202  0.00459673     1.10700
O131        O  0.18462931  0.28822998  0.45181218    -0.78900
O132        O  0.28633966  0.31736138  0.10485420    -0.78900
O133        O  0.18729700  0.20588181  0.04738597    -0.78900
O134        O  0.27563331  0.35873747  0.01625453    -0.78900
O135        O  0.21669974  0.24725753  0.10396465    -0.79000
O136        O  0.24644109  0.34854485  0.44940889    -0.78900
O137        O  0.32727025  0.34677865  0.04851407    -0.78900
O138        O  0.17341521  0.25584365  0.01577798    -0.79000
C139        C  0.16645135  0.27541250  0.48914874     1.10800
C140        C  0.31736426  0.34429806  0.09180695     1.10700
C141        C  0.19022901  0.21593926  0.09068992     1.10800
C142        C  0.25746887  0.36624401  0.48746972     1.10700
O143        O  0.28513684  0.31464891  0.40900726    -0.78900
O144        O  0.25281848  0.21775995  0.04890063    -0.79000
O145        O  0.16886683  0.20477549  0.44998577    -0.78900
O146        O  0.31226598  0.29337880  0.97422744    -0.78900
O147        O  0.31705047  0.28179474  0.04974513    -0.79000
O148        O  0.21525494  0.24682514  0.40765094    -0.78900
O149        O  0.32681518  0.36264339  0.45066153    -0.78900
O150        O  0.23954314  0.22081714  0.97307386    -0.79000
Co151      Co  0.23499588  0.29731266  0.43941879     1.51500
Co152      Co  0.26647591  0.26768498  0.07309856     1.51700
Co153      Co  0.20683501  0.24000941  0.99142788     1.51600
Co154      Co  0.29243535  0.32571604  0.99253193     1.51500
O155        O  0.24754517  0.28511433  0.01446437    -1.40800
C156        C  0.31416478  0.34669005  0.41070959     1.10700
C157        C  0.24886740  0.20641912  0.00618597     1.10800
C158        C  0.18315617  0.21786339  0.40951082     1.10700
C159        C  0.32764456  0.28487521  0.00682739     1.10700
C160        C  0.13752392  0.28239407  0.49998620    -0.12100
C161        C  0.11152289  0.28599136  0.00817234    -0.13600
C162        C  0.35988403  0.28282047  0.99624783    -0.12100
C163        C  0.38896485  0.28455041  0.48892896    -0.13600
C164        C  0.24382251  0.41965560  0.00300347    -0.12100
C165        C  0.24957549  0.39477409  0.49665897    -0.13600
C166        C  0.24732220  0.14406918  0.49338266    -0.12100
C167        C  0.25009153  0.17377249  0.99730323    -0.13600
C168        C  0.11069641  0.39151086  0.99408102    -0.12100
C169        C  0.13847367  0.42089219  0.99493826    -0.13600
C170        C  0.39449041  0.16285396  0.50692858    -0.12100
C171        C  0.36617890  0.13444111  0.50587762    -0.13600
C172        C  0.32902525  0.02053370  0.13340592    -0.12100
C173        C  0.34914451  0.01931183  0.16419042    -0.13600
C174        C  0.34599313  0.02594420  0.33811906    -0.12100
C175        C  0.32986529  0.02373370  0.37484497    -0.13600
C176        C  0.34279451  0.37165782  0.12613481    -0.12100
C177        C  0.36334291  0.39203712  0.15746038    -0.13600
C178        C  0.34674474  0.37935398  0.33084046    -0.12100
C179        C  0.33231923  0.36358710  0.36721565    -0.13600
C180        C  0.00045843  0.37929481  0.11443838    -0.12100
C181        C  0.99877455  0.39792748  0.14661963    -0.13600
C182        C  0.50279547  0.37115669  0.31808771    -0.12100
C183        C  0.50368445  0.35668098  0.35542907    -0.13600
C184        C  0.13397167  0.02970253  0.15648748    -0.12100
C185        C  0.15383258  0.02970329  0.12479589    -0.13600
C186        C  0.15270075  0.03357518  0.33011203    -0.12100
C187        C  0.16751409  0.03213583  0.36644382    -0.13600
C188        C  0.16409811  0.19011108  0.12478516    -0.12100
C189        C  0.14449622  0.16873383  0.15533575    -0.13600
C190        C  0.14884215  0.18657562  0.32798999    -0.12100
C191        C  0.16457501  0.20023246  0.36540223    -0.13600
C192        C  0.00475090  0.20332193  0.14379774    -0.12100
C193        C  0.00384281  0.18298321  0.17597680    -0.13600
C194        C  0.50767852  0.17387804  0.35227204    -0.12100
C195        C  0.50897817  0.19148178  0.38718484    -0.13600
C196        C  0.50324244  0.15458180  0.80641640     0.87700
C197        C  0.02784509  0.13819988  0.80097172    -0.52500
C198        C  0.03046770  0.12777982  0.75502291     0.10600
C199        C  0.49628384  0.12316960  0.72348795     0.21600
C200        C  0.50830891  0.17948945  0.76313961    -0.53200
C201        C  0.00363936  0.16323066  0.71964457     0.10700
C202        C  0.46664582  0.12138520  0.79981063    -0.52800
C203        C  0.46034625  0.10322005  0.75648364     0.11300
H204        H  0.04689421  0.14125107  0.82985720     0.15800
H205        H  0.49310238  0.10959850  0.68835271     0.01600
H206        H  0.51370886  0.20754524  0.76687208     0.16100
H207        H  0.44839978  0.11224261  0.83027223     0.15900
C208        C  0.12802004  0.16508722  0.78549207     0.87700
C209        C  0.11126285  0.12408242  0.79554590    -0.52500
C210        C  0.09603561  0.10098396  0.75679878     0.10600
C211        C  0.08947598  0.12213490  0.71504177     0.21600
C212        C  0.15015641  0.17308600  0.74035104    -0.53200
C213        C  0.12994205  0.15292764  0.70197785     0.10700
C214        C  0.09647783  0.17054689  0.76961293    -0.52800
C215        C  0.07109654  0.14351950  0.73927493     0.11300
H216        H  0.11500122  0.11488583  0.83058303     0.15800
H217        H  0.07339606  0.10456105  0.68434271     0.01600
H218        H  0.17800279  0.19624682  0.73739790     0.16100
H219        H  0.09119628  0.18999127  0.78867728     0.15900
C220        C  0.13000206  0.03393479  0.79037335     0.87700
C221        C  0.09059732  0.00455061  0.79652936    -0.52500
C222        C  0.06721832  0.99899151  0.75860381     0.10600
C223        C  0.08616338  0.03203605  0.72172596     0.21600
C224        C  0.14212614  0.02910241  0.74151299    -0.53200
C225        C  0.12073443  0.02952122  0.70472524     0.10700
C226        C  0.12838025  0.06852053  0.78688006    -0.52800
C227        C  0.10353705  0.06853970  0.75399048     0.11300
H228        H  0.08261941  0.48879985  0.82956898     0.15800
H229        H  0.06771348  0.03131919  0.69231672     0.01600
H230        H  0.16693208  0.02736130  0.73620176     0.16100
H231        H  0.14638909  0.09121128  0.81000928     0.15900
C232        C  0.50112820  0.39522909  0.78035624     0.87700
C233        C  0.46841347  0.40050526  0.78624994    -0.52500
C234        C  0.46569951  0.42531265  0.75588928     0.10600
C235        C  0.99901905  0.44244149  0.71984861     0.21600
C236        C  0.99914061  0.38350068  0.72923250    -0.53200
C237        C  0.49833119  0.40750233  0.69659247     0.10700
C238        C  0.03427203  0.43280358  0.78266440    -0.52800
C239        C  0.03443535  0.45956365  0.75336017     0.11300
H240        H  0.44797387  0.38272918  0.81171810     0.15800
H241        H  0.99819875  0.46208380  0.69364797     0.01600
H242        H  0.99910549  0.35841358  0.71939913     0.16100
H243        H  0.05696076  0.43607958  0.80521392     0.15900
C244        C  0.36881502  0.40188955  0.79087642     0.87700
C245        C  0.36927324  0.43752667  0.78629108    -0.52500
C246        C  0.39437249  0.46265513  0.75453265     0.10600
C247        C  0.41195126  0.44350787  0.72280113     0.21600
C248        C  0.35673829  0.38437720  0.74222574    -0.53200
C249        C  0.37755112  0.40592565  0.70555033     0.10700
C250        C  0.40854414  0.41234930  0.79775838    -0.52800
C251        C  0.43167105  0.43025480  0.76030878     0.11300
H252        H  0.35105775  0.44218610  0.80886413     0.15800
H253        H  0.43001982  0.46098192  0.69350995     0.01600
H254        H  0.33220352  0.35771289  0.73688182     0.16100
H255        H  0.41675470  0.40486390  0.83098841     0.15900
C256        C  0.36751438  0.02873713  0.79512164     0.87700
C257        C  0.39556089  0.06722395  0.78152761    -0.52500
C258        C  0.42108756  0.07025371  0.74819767     0.10600
C259        C  0.40683212  0.03155330  0.72172542     0.21600
C260        C  0.34475278  0.01411172  0.74960559    -0.53200
C261        C  0.36516527  0.01789246  0.71005598     0.10700
C262        C  0.38965743  0.00914449  0.80221551    -0.52800
C263        C  0.40408274  0.00329203  0.76124232     0.11300
H264        H  0.39631134  0.09014349  0.80033982     0.15800
H265        H  0.42341072  0.03309525  0.69013116     0.01600
H266        H  0.31582012  0.00642877  0.74769297     0.16100
H267        H  0.38827722  0.49553835  0.83608530     0.15900
O268        O  0.25593415  0.10139335  0.95262161    -0.78900
O269        O  0.27714789  0.02609122  0.60976736    -0.78900
O270        O  0.16981047  0.02030223  0.54761238    -0.78600
O271        O  0.32404632  0.07424317  0.02328515    -0.78900
O272        O  0.20973837  0.03048082  0.60595025    -0.79000
O273        O  0.31562240  0.09741001  0.95873598    -0.78900
O274        O  0.30498106  0.01044800  0.55570806    -0.78900
O275        O  0.22234460  0.08277616  0.51556532    -0.79000
C276        C  0.24190548  0.10810745  0.98752284     1.10800
C277        C  0.30278159  0.01947425  0.59827000     1.10700
C278        C  0.17926173  0.02743386  0.59136751     1.10800
C279        C  0.33372564  0.10092883  0.99620754     1.10700
O280        O  0.28102061  0.02544981  0.91368296    -0.78900
O281        O  0.17749209  0.46434755  0.55015221    -0.79000
O282        O  0.17180506  0.03612455  0.94978903    -0.78900
O283        O  0.25215585  0.47583179  0.47864781    -0.78900
O284        O  0.23949950  0.46037389  0.55414304    -0.79000
O285        O  0.21402319  0.02942358  0.91042340    -0.78900
O286        O  0.32456163  0.02497945  0.95905264    -0.78900
O287        O  0.18440980  0.48019691  0.47452640    -0.79000
Co288      Co  0.26418293  0.05926732  0.94384409     1.51500
Co289      Co  0.22785987  0.49871413  0.57635454     1.51700
Co290      Co  0.20516604  0.03252776  0.49315716     1.51600
Co291      Co  0.28780637  0.02649226  0.99795694     1.51500
O292        O  0.24914526  0.03506163  0.51846688    -1.40800
C293        C  0.31149006  0.02493152  0.91771650     1.10700
C294        C  0.16861158  0.45638648  0.50658757     1.10800
C295        C  0.18515440  0.03301103  0.91067070     1.10700
C296        C  0.24321064  0.45250231  0.51166580     1.10700
O297        O  0.43283499  0.21218360  0.95994440    -0.78900
O298        O  0.00040106  0.32333460  0.60080069    -0.78900
O299        O  0.01741846  0.22430902  0.56408039    -0.78900
O300        O  0.45098078  0.31024680  0.50800043    -0.78900
O301        O  0.00232359  0.25547542  0.61310003    -0.79000
O302        O  0.43035342  0.27242393  0.94900105    -0.78900
O303        O  0.51304987  0.36164441  0.53994379    -0.78900
O304        O  0.45418527  0.20567291  0.52751421    -0.79000
C305        C  0.42823459  0.19523983  0.99855018     1.10800
C306        C  0.00426664  0.35339770  0.58363275     1.10700
C307        C  0.00789189  0.22863211  0.60547352     1.10800
C308        C  0.42476477  0.28909921  0.98195140     1.10700
O309        O  0.50319998  0.31058300  0.90534175    -0.78900
O310        O  0.06925960  0.28885547  0.55854048    -0.79000
O311        O  0.00390581  0.20085675  0.96908330    -0.78900
O312        O  0.05318986  0.34259626  0.47173101    -0.78900
O313        O  0.06743656  0.35163841  0.54809882    -0.79000
O314        O  0.50473040  0.24188840  0.91741673    -0.78900
O315        O  0.49920871  0.35617595  0.93956623    -0.78900
O316        O  0.05383935  0.27330868  0.48352665    -0.79000
Co317      Co  0.47201177  0.26234614  0.94293215     1.51500
Co318      Co  0.03153918  0.30283355  0.57636243     1.51700
Co319      Co  0.00287395  0.23974598  0.50291487     1.51600
Co320      Co  0.50084085  0.32423324  0.48761208     1.51500
O321        O  0.99580513  0.28041440  0.51759217    -1.40800
C322        C  0.50155920  0.34050361  0.90197482     1.10700
C323        C  0.07737136  0.28409014  0.51668013     1.10800
C324        C  0.50560652  0.21193355  0.92626692     1.10700
C325        C  0.07610848  0.35976367  0.50461654     1.10700
O326        O  0.18463123  0.28829552  0.95173404    -0.78900
O327        O  0.28637864  0.31736457  0.60490856    -0.78900
O328        O  0.18734095  0.20585365  0.54746110    -0.78900
O329        O  0.27564442  0.35871740  0.51627241    -0.78900
O330        O  0.21673880  0.24722578  0.60404854    -0.79000
O331        O  0.24645545  0.34860572  0.94937722    -0.78900
O332        O  0.32728904  0.34677232  0.54854085    -0.78900
O333        O  0.17343341  0.25581196  0.51588316    -0.79000
C334        C  0.16644277  0.27545768  0.98905724     1.10800
C335        C  0.31739377  0.34430775  0.59183727     1.10700
C336        C  0.19027033  0.21590629  0.59076430     1.10800
C337        C  0.25747366  0.36628605  0.98745417     1.10700
O338        O  0.28513528  0.31468745  0.90898222    -0.78900
O339        O  0.25287415  0.21775743  0.54896978    -0.79000
O340        O  0.16885959  0.20481669  0.94989948    -0.78900
O341        O  0.31226370  0.29334318  0.47427442    -0.78900
O342        O  0.31708812  0.28180193  0.54979732    -0.79000
O343        O  0.21525068  0.24688476  0.90758108    -0.78900
O344        O  0.32681043  0.36268203  0.95063879    -0.78900
O345        O  0.23956416  0.22079327  0.47314825    -0.79000
Co346      Co  0.23499374  0.29736753  0.93935999     1.51500
Co347      Co  0.26651650  0.26767839  0.57316604     1.51700
Co348      Co  0.20685228  0.23997962  0.49150997     1.51600
Co349      Co  0.29244355  0.32568849  0.49256938     1.51500
O350        O  0.24756511  0.28508953  0.51453162    -1.40800
C351        C  0.31415860  0.34672905  0.91068656     1.10700
C352        C  0.24891423  0.20641250  0.50625562     1.10800
C353        C  0.18315245  0.21792160  0.90943314     1.10700
C354        C  0.32765439  0.28485207  0.50687062     1.10700
C355        C  0.13751675  0.28243462  0.99990681    -0.12100
C356        C  0.11153458  0.28597094  0.50820869    -0.13600
C357        C  0.35987556  0.28277631  0.49626896    -0.12100
C358        C  0.38898061  0.28459946  0.98893165    -0.13600
C359        C  0.24379264  0.41960171  0.50296633    -0.12100
C360        C  0.24959126  0.39482135  0.99666815    -0.13600
C361        C  0.24723411  0.14405408  0.99332823    -0.12100
C362        C  0.25016431  0.17378031  0.49736806    -0.13600
C363        C  0.11066461  0.39153081  0.49409990    -0.12100
C364        C  0.13844375  0.42091063  0.49492509    -0.13600
C365        C  0.39444424  0.16290171  0.00696533    -0.12100
C366        C  0.36611509  0.13450938  0.00589748    -0.13600
C367        C  0.32900682  0.02042319  0.63341116    -0.12100
C368        C  0.34912480  0.01923954  0.66423350    -0.13600
C369        C  0.34601120  0.02595372  0.83819128    -0.12100
C370        C  0.32988203  0.02375776  0.87491057    -0.13600
C371        C  0.34282754  0.37169650  0.62613972    -0.12100
C372        C  0.36337764  0.39209675  0.65745102    -0.13600
C373        C  0.34672398  0.37937335  0.83081304    -0.12100
C374        C  0.33230566  0.36362007  0.86719393    -0.13600
C375        C  0.00037327  0.37921393  0.61446753    -0.12100
C376        C  0.99868693  0.39784736  0.64664398    -0.13600
C377        C  0.50277937  0.37111121  0.81808477    -0.12100
C378        C  0.50367814  0.35664043  0.85542089    -0.13600
C379        C  0.13402340  0.02972831  0.65651823    -0.12100
C380        C  0.15388253  0.02971941  0.62482635    -0.13600
C381        C  0.15268014  0.03351827  0.83013720    -0.12100
C382        C  0.16748435  0.03206969  0.86646446    -0.13600
C383        C  0.16412303  0.19006974  0.62483418    -0.12100
C384        C  0.14448535  0.16867698  0.65534548    -0.13600
C385        C  0.14882725  0.18661808  0.82793898    -0.12100
C386        C  0.16457474  0.20029908  0.86532874    -0.13600
C387        C  0.00482627  0.20332119  0.64376813    -0.12100
C388        C  0.00393599  0.18299383  0.67595229    -0.13600
C389        C  0.50775152  0.17391991  0.85226849    -0.12100
C390        C  0.50902584  0.19150067  0.88719821    -0.13600
C391        C  0.50319028  0.65455189  0.30642272     0.87700
C392        C  0.02787806  0.63827866  0.30094729    -0.52500
C393        C  0.03050648  0.62785937  0.25500199     0.10600
C394        C  0.49628849  0.62318215  0.22347570     0.21600
C395        C  0.50817985  0.67944629  0.26316108    -0.53200
C396        C  0.00355180  0.66321232  0.21965810     0.10700
C397        C  0.46664080  0.62129159  0.29983347    -0.52800
C398        C  0.46035899  0.60316391  0.25648052     0.11300
H399        H  0.04693683  0.64135983  0.32983406     0.15800
H400        H  0.49313079  0.60963093  0.18833086     0.01600
H401        H  0.51351642  0.70747966  0.26690970     0.16100
H402        H  0.44839943  0.61209286  0.33030265     0.15900
C403        C  0.12803977  0.66508340  0.28550604     0.87700
C404        C  0.11123562  0.62406958  0.29552605    -0.52500
C405        C  0.09602093  0.60099911  0.25675434     0.10600
C406        C  0.08949235  0.62218514  0.21501345     0.21600
C407        C  0.15018660  0.67308479  0.24036357    -0.53200
C408        C  0.12996726  0.65295890  0.20196831     0.10700
C409        C  0.09652438  0.67058751  0.26962143    -0.52800
C410        C  0.07113522  0.64358550  0.23925925     0.11300
H411        H  0.11495563  0.61484084  0.33055120     0.15800
H412        H  0.07340799  0.60463029  0.18430290     0.01600
H413        H  0.17804007  0.69623443  0.23742615     0.16100
H414        H  0.09126218  0.69004138  0.28869483     0.15900
C415        C  0.13001156  0.53397622  0.29033844     0.87700
C416        C  0.09059478  0.50462414  0.29653958    -0.52500
C417        C  0.06720569  0.49904905  0.25861947     0.10600
C418        C  0.08615246  0.53205785  0.22169887     0.21600
C419        C  0.14209401  0.52908057  0.24147930    -0.53200
C420        C  0.12069454  0.52949600  0.20469662     0.10700
C421        C  0.12842920  0.56858245  0.28677973    -0.52800
C422        C  0.10356404  0.56858437  0.25391062     0.11300
H423        H  0.08261428  0.98889419  0.32960333     0.15800
H424        H  0.06769422  0.53133499  0.19229657     0.01600
H425        H  0.16688702  0.52731741  0.23616165     0.16100
H426        H  0.14645906  0.59129279  0.30987077     0.15900
C427        C  0.50114916  0.89527286  0.28034611     0.87700
C428        C  0.46840255  0.90050409  0.28618582    -0.52500
C429        C  0.46569496  0.92532024  0.25583924     0.10600
C430        C  0.99903724  0.94248409  0.21983238     0.21600
C431        C  0.99921730  0.88357247  0.22921414    -0.53200
C432        C  0.49840201  0.90757135  0.19657294     0.10700
C433        C  0.03426369  0.93286419  0.28269984    -0.52800
C434        C  0.03443215  0.95961830  0.25338513     0.11300
H435        H  0.44793954  0.88269850  0.31161270     0.15800
H436        H  0.99821681  0.96212705  0.19363362     0.01600
H437        H  0.99921254  0.85850068  0.21937970     0.16100
H438        H  0.05695028  0.93615686  0.30529477     0.15900
C439        C  0.36881926  0.90186829  0.29088342     0.87700
C440        C  0.36923878  0.93748665  0.28625785    -0.52500
C441        C  0.39432500  0.96261137  0.25448157     0.10600
C442        C  0.41191781  0.94347243  0.22276609     0.21600
C443        C  0.35674369  0.88432610  0.24224606    -0.53200
C444        C  0.37753374  0.90586899  0.20555118     0.10700
C445        C  0.40856353  0.91237294  0.29775539    -0.52800
C446        C  0.43166913  0.93026418  0.26027985     0.11300
H447        H  0.35101960  0.94214300  0.30882713     0.15800
H448        H  0.42996845  0.96094041  0.19345770     0.01600
H449        H  0.33221913  0.85765057  0.23692373     0.16100
H450        H  0.41680325  0.90491880  0.33098773     0.15900
C451        C  0.36749730  0.52872253  0.29505357     0.87700
C452        C  0.39555916  0.56720603  0.28146102    -0.52500
C453        C  0.42109112  0.57022274  0.24814680     0.10600
C454        C  0.40681883  0.53152148  0.22167154     0.21600
C455        C  0.34474090  0.51410582  0.24953592    -0.53200
C456        C  0.36515778  0.51788444  0.20999237     0.10700
C457        C  0.38961868  0.50910936  0.30215476    -0.52800
C458        C  0.40404450  0.50325046  0.26118854     0.11300
H459        H  0.39632968  0.59013327  0.30028031     0.15800
H460        H  0.42339643  0.53305283  0.19008102     0.01600
H461        H  0.31581582  0.50645092  0.24761437     0.16100
H462        H  0.38822764  0.99550135  0.33602624     0.15900
O463        O  0.25601658  0.60140991  0.45265896    -0.78900
O464        O  0.27714456  0.52617144  0.10978430    -0.78900
O465        O  0.16977130  0.52027692  0.04760177    -0.78600
O466        O  0.32409041  0.57417006  0.52326384    -0.78900
O467        O  0.20970591  0.53050115  0.10594544    -0.79000
O468        O  0.31567047  0.59736223  0.45873372    -0.78900
O469        O  0.30498937  0.51054258  0.05572710    -0.78900
O470        O  0.22228077  0.58276779  0.01554424    -0.79000
C471        C  0.24198641  0.60812125  0.48756145     1.10800
C472        C  0.30279107  0.51957522  0.09828224     1.10700
C473        C  0.17922141  0.52742821  0.09135233     1.10800
C474        C  0.33378060  0.60086285  0.49619256     1.10700
O475        O  0.28101162  0.52541201  0.41365960    -0.78900
O476        O  0.17749546  0.96434703  0.05017810    -0.79000
O477        O  0.17185366  0.53617594  0.44978317    -0.78900
O478        O  0.25217801  0.97588293  0.97868448    -0.78900
O479        O  0.23953324  0.96043138  0.05418498    -0.79000
O480        O  0.21405332  0.52946312  0.41039376    -0.78900
O481        O  0.32454506  0.52489562  0.45899716    -0.78900
O482        O  0.18441534  0.98018742  0.97455113    -0.79000
Co483      Co  0.26421792  0.55925708  0.44383857     1.51500
Co484      Co  0.22785744  0.99875201  0.07637733     1.51700
Co485      Co  0.20513399  0.53251805  0.99316070     1.51600
Co486      Co  0.28781390  0.52642838  0.49793556     1.51500
O487        O  0.24912116  0.53509070  0.01848162    -1.40800
C488        C  0.31147630  0.52488184  0.41766879     1.10700
C489        C  0.16862440  0.95637682  0.00661206     1.10800
C490        C  0.18519263  0.53306579  0.41065251     1.10700
C491        C  0.24324443  0.95255830  0.01170764     1.10700
O492        O  0.43285078  0.71217442  0.45992592    -0.78900
O493        O  0.00044442  0.82339122  0.10079183    -0.78900
O494        O  0.01738431  0.72431022  0.06411369    -0.78900
O495        O  0.45100270  0.81028511  0.00800065    -0.78900
O496        O  0.00231163  0.75550518  0.11311707    -0.79000
O497        O  0.43035048  0.77241055  0.44897556    -0.78900
O498        O  0.51309926  0.86168439  0.03991529    -0.78900
O499        O  0.45416033  0.70567476  0.02753403    -0.79000
C500        C  0.42826093  0.69522243  0.49852511     1.10800
C501        C  0.00432721  0.85345783  0.08361086     1.10700
C502        C  0.00785295  0.72864379  0.10549979     1.10800
C503        C  0.42475069  0.78906555  0.48194041     1.10700
O504        O  0.50319499  0.81059973  0.40532775    -0.78900
O505        O  0.06924656  0.78883672  0.05854551    -0.79000
O506        O  0.00392582  0.70087014  0.46906508    -0.78900
O507        O  0.05320635  0.84258764  0.97171647    -0.78900
O508        O  0.06746382  0.85163578  0.04808013    -0.79000
O509        O  0.50474779  0.74190487  0.41740594    -0.78900
O510        O  0.49918563  0.85617386  0.43958156    -0.78900
O511        O  0.05381384  0.77329533  0.98353448    -0.79000
Co512      Co  0.47201774  0.76234868  0.44291466     1.51500
Co513      Co  0.03154952  0.80284817  0.07636254     1.51700
Co514      Co  0.00285198  0.73973917  0.00293006     1.51600
Co515      Co  0.50085907  0.82424596  0.98760959     1.51500
O516        O  0.99580275  0.78042135  0.01760414    -1.40800
C517        C  0.50155245  0.84052183  0.40197827     1.10700
C518        C  0.07735265  0.78408126  0.01667727     1.10800
C519        C  0.50560532  0.71193962  0.42625078     1.10700
C520        C  0.07613303  0.85975198  0.00459673     1.10700
O521        O  0.18462931  0.78822994  0.45181218    -0.78900
O522        O  0.28633964  0.81736136  0.10485421    -0.78900
O523        O  0.18729699  0.70588177  0.04738595    -0.78900
O524        O  0.27563332  0.85873748  0.01625454    -0.78900
O525        O  0.21669974  0.74725751  0.10396463    -0.79000
O526        O  0.24644107  0.84854482  0.44940889    -0.78900
O527        O  0.32727023  0.84677861  0.04851408    -0.78900
O528        O  0.17341516  0.75584363  0.01577797    -0.79000
C529        C  0.16645135  0.77541245  0.48914874     1.10800
C530        C  0.31736424  0.84429803  0.09180695     1.10700
C531        C  0.19022900  0.71593924  0.09068991     1.10800
C532        C  0.25746884  0.86624398  0.48746972     1.10700
O533        O  0.28513687  0.81464892  0.40900723    -0.78900
O534        O  0.25281852  0.71775999  0.04890061    -0.79000
O535        O  0.16886683  0.70477546  0.44998577    -0.78900
O536        O  0.31226595  0.79337876  0.97422745    -0.78900
O537        O  0.31705046  0.78179472  0.04974514    -0.79000
O538        O  0.21525492  0.74682511  0.40765093    -0.78900
O539        O  0.32681518  0.86264342  0.45066153    -0.78900
O540        O  0.23954310  0.72081710  0.97307384    -0.79000
Co541      Co  0.23499588  0.79731263  0.43941877     1.51500
Co542      Co  0.26647591  0.76768498  0.07309855     1.51700
Co543      Co  0.20683497  0.74000938  0.99142787     1.51600
Co544      Co  0.29243533  0.82571602  0.99253193     1.51500
O545        O  0.24754515  0.78511430  0.01446437    -1.40800
C546        C  0.31416479  0.84669008  0.41070959     1.10700
C547        C  0.24886740  0.70641912  0.00618596     1.10800
C548        C  0.18315616  0.71786335  0.40951082     1.10700
C549        C  0.32764454  0.78487517  0.00682739     1.10700
C550        C  0.13752395  0.78239402  0.49998619    -0.12100
C551        C  0.11152298  0.78599154  0.00817232    -0.13600
C552        C  0.35988404  0.78282049  0.99624783    -0.12100
C553        C  0.38896485  0.78455037  0.48892893    -0.13600
C554        C  0.24382252  0.91965561  0.00300347    -0.12100
C555        C  0.24957546  0.89477404  0.49665895    -0.13600
C556        C  0.24732215  0.64406917  0.49338250    -0.12100
C557        C  0.25009151  0.67377247  0.99730327    -0.13600
C558        C  0.11069639  0.89151082  0.99408102    -0.12100
C559        C  0.13847365  0.92089216  0.99493826    -0.13600
C560        C  0.39449041  0.66285393  0.50692858    -0.12100
C561        C  0.36617889  0.63444110  0.50587761    -0.13600
C562        C  0.32902522  0.52053366  0.13340593    -0.12100
C563        C  0.34914449  0.51931180  0.16419042    -0.13600
C564        C  0.34599316  0.52594427  0.33811907    -0.12100
C565        C  0.32986530  0.52373372  0.37484497    -0.13600
C566        C  0.34279449  0.87165778  0.12613481    -0.12100
C567        C  0.36334289  0.89203707  0.15746038    -0.13600
C568        C  0.34674479  0.87935410  0.33084052    -0.12100
C569        C  0.33231925  0.86358720  0.36721568    -0.13600
C570        C  0.00045841  0.87929477  0.11443838    -0.12100
C571        C  0.99877453  0.89792744  0.14661963    -0.13600
C572        C  0.50279544  0.87115666  0.31808767    -0.12100
C573        C  0.50368443  0.85668096  0.35542903    -0.13600
C574        C  0.13397164  0.52970248  0.15648749    -0.12100
C575        C  0.15383256  0.52970325  0.12479590    -0.13600
C576        C  0.15270079  0.53357526  0.33011203    -0.12100
C577        C  0.16751409  0.53213585  0.36644382    -0.13600
C578        C  0.16409810  0.69011110  0.12478516    -0.12100
C579        C  0.14449621  0.66873390  0.15533578    -0.13600
C580        C  0.14884215  0.68657562  0.32798999    -0.12100
C581        C  0.16457499  0.70023242  0.36540223    -0.13600
C582        C  0.00475088  0.70332188  0.14379773    -0.12100
C583        C  0.00384279  0.68298317  0.17597681    -0.13600
C584        C  0.50767854  0.67387807  0.35227204    -0.12100
C585        C  0.50897822  0.69148183  0.38718482    -0.13600
C586        C  0.50324243  0.65458177  0.80641637     0.87700
C587        C  0.02784509  0.63819985  0.80097173    -0.52500
C588        C  0.03046769  0.62777980  0.75502289     0.10600
C589        C  0.49628385  0.62316962  0.72348789     0.21600
C590        C  0.50830889  0.67948943  0.76313960    -0.53200
C591        C  0.00363934  0.66323063  0.71964456     0.10700
C592        C  0.46664582  0.62138516  0.79981059    -0.52800
C593        C  0.46034626  0.60322003  0.75648361     0.11300
H594        H  0.04689418  0.64125105  0.82985718     0.15800
H595        H  0.49310236  0.60959849  0.68835267     0.01600
H596        H  0.51370886  0.70754523  0.76687206     0.16100
H597        H  0.44839974  0.61224255  0.83027218     0.15900
C598        C  0.12802004  0.66508720  0.78549205     0.87700
C599        C  0.11126283  0.62408240  0.79554587    -0.52500
C600        C  0.09603561  0.60098396  0.75679874     0.10600
C601        C  0.08947599  0.62213492  0.71504172     0.21600
C602        C  0.15015642  0.67308600  0.74035102    -0.53200
C603        C  0.12994205  0.65292768  0.70197780     0.10700
C604        C  0.09647782  0.67054689  0.76961293    -0.52800
C605        C  0.07109654  0.64351950  0.73927491     0.11300
H606        H  0.11500118  0.61488579  0.83058301     0.15800
H607        H  0.07339606  0.60456110  0.68434265     0.01600
H608        H  0.17800281  0.69624682  0.73739791     0.16100
H609        H  0.09119627  0.68999124  0.78867728     0.15900
C610        C  0.13000206  0.53393477  0.79037335     0.87700
C611        C  0.09059732  0.50455061  0.79652934    -0.52500
C612        C  0.06721833  0.49899152  0.75860379     0.10600
C613        C  0.08616339  0.53203607  0.72172596     0.21600
C614        C  0.14212615  0.52910242  0.74151298    -0.53200
C615        C  0.12073445  0.52952127  0.70472524     0.10700
C616        C  0.12838023  0.56852051  0.78688008    -0.52800
C617        C  0.10353703  0.56853969  0.75399049     0.11300
H618        H  0.08261943  0.98879985  0.82956896     0.15800
H619        H  0.06771349  0.53131921  0.69231671     0.01600
H620        H  0.16693205  0.52736124  0.73620176     0.16100
H621        H  0.14638907  0.59121126  0.81000930     0.15900
C622        C  0.50112818  0.89522906  0.78035621     0.87700
C623        C  0.46841347  0.90050525  0.78624991    -0.52500
C624        C  0.46569951  0.92531262  0.75588924     0.10600
C625        C  0.99901906  0.94244149  0.71984860     0.21600
C626        C  0.99914060  0.88350068  0.72923247    -0.53200
C627        C  0.49833115  0.90750227  0.69659243     0.10700
C628        C  0.03427202  0.93280356  0.78266441    -0.52800
C629        C  0.03443535  0.95956363  0.75336018     0.11300
H630        H  0.44797388  0.88272919  0.81171808     0.15800
H631        H  0.99819874  0.96208378  0.69364797     0.01600
H632        H  0.99910551  0.85841357  0.71939907     0.16100
H633        H  0.05696074  0.93607956  0.80521395     0.15900
C634        C  0.36881502  0.90188950  0.79087641     0.87700
C635        C  0.36927321  0.93752660  0.78629105    -0.52500
C636        C  0.39437247  0.96265507  0.75453263     0.10600
C637        C  0.41195127  0.94350783  0.72280113     0.21600
C638        C  0.35673833  0.88437716  0.74222573    -0.53200
C639        C  0.37755116  0.90592559  0.70555034     0.10700
C640        C  0.40854414  0.91234927  0.79775839    -0.52800
C641        C  0.43167106  0.93025479  0.76030879     0.11300
H642        H  0.35105770  0.94218602  0.80886409     0.15800
H643        H  0.43001984  0.96098190  0.69350998     0.01600
H644        H  0.33220353  0.85771283  0.73688180     0.16100
H645        H  0.41675468  0.90486386  0.83098842     0.15900
C646        C  0.36751440  0.52873719  0.79512160     0.87700
C647        C  0.39556087  0.56722403  0.78152750    -0.52500
C648        C  0.42108755  0.57025373  0.74819757     0.10600
C649        C  0.40683213  0.53155331  0.72172539     0.21600
C650        C  0.34475277  0.51411169  0.74960559    -0.53200
C651        C  0.36516526  0.51789243  0.71005596     0.10700
C652        C  0.38965748  0.50914457  0.80221552    -0.52800
C653        C  0.40408278  0.50329209  0.76124232     0.11300
H654        H  0.39631131  0.59014352  0.80033960     0.15800
H655        H  0.42341074  0.53309528  0.69013112     0.01600
H656        H  0.31582011  0.50642870  0.74769298     0.16100
H657        H  0.38827715  0.99553824  0.83608531     0.15900
O658        O  0.25593414  0.60139335  0.95262162    -0.78900
O659        O  0.27714792  0.52609133  0.60976733    -0.78900
O660        O  0.16981045  0.52030220  0.54761238    -0.78600
O661        O  0.32404631  0.57424314  0.02328516    -0.78900
O662        O  0.20973835  0.53048080  0.60595024    -0.79000
O663        O  0.31562239  0.59741000  0.95873600    -0.78900
O664        O  0.30498112  0.51044813  0.55570804    -0.78900
O665        O  0.22234459  0.58277616  0.51556530    -0.79000
C666        C  0.24190547  0.60810743  0.98752284     1.10800
C667        C  0.30278162  0.51947432  0.59827000     1.10700
C668        C  0.17926170  0.52743382  0.59136751     1.10800
C669        C  0.33372563  0.60092879  0.99620755     1.10700
O670        O  0.28102069  0.52544995  0.91368292    -0.78900
O671        O  0.17749210  0.96434754  0.55015227    -0.79000
O672        O  0.17180503  0.53612451  0.94978904    -0.78900
O673        O  0.25215581  0.97583172  0.47864779    -0.78900
O674        O  0.23949945  0.96037383  0.55414304    -0.79000
O675        O  0.21402324  0.52942368  0.91042335    -0.78900
O676        O  0.32456163  0.52497945  0.95905264    -0.78900
O677        O  0.18440984  0.98019693  0.47452648    -0.79000
Co678      Co  0.26418294  0.55926736  0.94384412     1.51500
Co679      Co  0.22785985  0.99871410  0.57635456     1.51700
Co680      Co  0.20516602  0.53252774  0.49315715     1.51600
Co681      Co  0.28780636  0.52649224  0.99795694     1.51500
O682        O  0.24914526  0.53506166  0.51846687    -1.40800
C683        C  0.31149012  0.52493162  0.91771649     1.10700
C684        C  0.16861164  0.95638648  0.50658763     1.10800
C685        C  0.18515439  0.53301104  0.91067069     1.10700
C686        C  0.24321060  0.95250225  0.51166580     1.10700
O687        O  0.43283497  0.71218356  0.95994440    -0.78900
O688        O  0.00040103  0.82333457  0.60080070    -0.78900
O689        O  0.01741848  0.72430905  0.56408039    -0.78900
O690        O  0.45098079  0.81024678  0.50800051    -0.78900
O691        O  0.00232360  0.75547543  0.61310000    -0.79000
O692        O  0.43035339  0.77242390  0.94900107    -0.78900
O693        O  0.51304986  0.86164438  0.53994378    -0.78900
O694        O  0.45418527  0.70567293  0.52751419    -0.79000
C695        C  0.42823457  0.69523979  0.99855018     1.10800
C696        C  0.00426662  0.85339767  0.58363276     1.10700
C697        C  0.00789192  0.72863214  0.60547351     1.10800
C698        C  0.42476478  0.78909923  0.98195140     1.10700
O699        O  0.50319996  0.81058296  0.90534175    -0.78900
O700        O  0.06925973  0.78885560  0.55854049    -0.79000
O701        O  0.00390579  0.70085671  0.96908330    -0.78900
O702        O  0.05318987  0.84259628  0.47173101    -0.78900
O703        O  0.06743657  0.85163845  0.54809882    -0.79000
O704        O  0.50473037  0.74188836  0.91741673    -0.78900
O705        O  0.49920869  0.85617591  0.93956623    -0.78900
O706        O  0.05383942  0.77330875  0.48352668    -0.79000
Co707      Co  0.47201175  0.76234610  0.94293215     1.51500
Co708      Co  0.03153921  0.80283358  0.57636243     1.51700
Co709      Co  0.00287398  0.73974601  0.50291487     1.51600
Co710      Co  0.50084085  0.82423323  0.48761205     1.51500
O711        O  0.99580514  0.78041441  0.51759217    -1.40800
C712        C  0.50155917  0.84050357  0.90197482     1.10700
C713        C  0.07737147  0.78409024  0.51668013     1.10800
C714        C  0.50560649  0.71193350  0.92626691     1.10700
C715        C  0.07610849  0.85976371  0.50461654     1.10700
O716        O  0.18463124  0.78829550  0.95173401    -0.78900
O717        O  0.28637866  0.81736456  0.60490854    -0.78900
O718        O  0.18734099  0.70585364  0.54746102    -0.78900
O719        O  0.27564443  0.85871743  0.51627241    -0.78900
O720        O  0.21673880  0.74722575  0.60404850    -0.79000
O721        O  0.24645546  0.84860574  0.94937722    -0.78900
O722        O  0.32728906  0.84677241  0.54854086    -0.78900
O723        O  0.17343340  0.75581191  0.51588316    -0.79000
C724        C  0.16644278  0.77545771  0.98905723     1.10800
C725        C  0.31739379  0.84430777  0.59183728     1.10700
C726        C  0.19027032  0.71590627  0.59076421     1.10800
C727        C  0.25747373  0.86628611  0.98745414     1.10700
O728        O  0.28513532  0.81468738  0.90898227    -0.78900
O729        O  0.25287419  0.71775746  0.54896969    -0.79000
O730        O  0.16885956  0.70481665  0.94989948    -0.78900
O731        O  0.31226372  0.79334322  0.47427444    -0.78900
O732        O  0.31708812  0.78180193  0.54979732    -0.79000
O733        O  0.21525066  0.74688472  0.90758108    -0.78900
O734        O  0.32681042  0.86268201  0.95063879    -0.78900
O735        O  0.23956423  0.72079336  0.47314817    -0.79000
Co736      Co  0.23499376  0.79736751  0.93935998     1.51500
Co737      Co  0.26651650  0.76767839  0.57316601     1.51700
Co738      Co  0.20685229  0.73997963  0.49150994     1.51600
Co739      Co  0.29244357  0.82568853  0.49256940     1.51500
O740        O  0.24756512  0.78508956  0.51453161    -1.40800
C741        C  0.31415862  0.84672900  0.91068658     1.10700
C742        C  0.24891426  0.70641255  0.50625552     1.10800
C743        C  0.18315243  0.71792157  0.90943314     1.10700
C744        C  0.32765439  0.78485205  0.50687062     1.10700
C745        C  0.13751684  0.78243479  0.99990683    -0.12100
C746        C  0.11153464  0.78597096  0.50820867    -0.13600
C747        C  0.35987555  0.78277627  0.49626894    -0.12100
C748        C  0.38898065  0.78459955  0.98893163    -0.13600
C749        C  0.24379261  0.91960166  0.50296634    -0.12100
C750        C  0.24959136  0.89482143  0.99666811    -0.13600
C751        C  0.24723409  0.64405406  0.99332824    -0.12100
C752        C  0.25016427  0.67378031  0.49736793    -0.13600
C753        C  0.11066462  0.89153088  0.49409991    -0.12100
C754        C  0.13844379  0.92091065  0.49492512    -0.13600
C755        C  0.39444422  0.66290168  0.00696533    -0.12100
C756        C  0.36611508  0.63450934  0.00589749    -0.13600
C757        C  0.32900679  0.52042315  0.63341118    -0.12100
C758        C  0.34912477  0.51923950  0.66423350    -0.13600
C759        C  0.34601126  0.52595382  0.83819127    -0.12100
C760        C  0.32988209  0.52375785  0.87491056    -0.13600
C761        C  0.34282753  0.87169648  0.62613977    -0.12100
C762        C  0.36337767  0.89209672  0.65745105    -0.13600
C763        C  0.34672396  0.87937331  0.83081302    -0.12100
C764        C  0.33230565  0.86362005  0.86719392    -0.13600
C765        C  0.00037329  0.87921394  0.61446754    -0.12100
C766        C  0.99868700  0.89784743  0.64664395    -0.13600
C767        C  0.50277935  0.87111120  0.81808477    -0.12100
C768        C  0.50367812  0.85664040  0.85542089    -0.13600
C769        C  0.13402340  0.52972831  0.65651823    -0.12100
C770        C  0.15388250  0.52971936  0.62482635    -0.13600
C771        C  0.15268012  0.53351823  0.83013720    -0.12100
C772        C  0.16748431  0.53206965  0.86646446    -0.13600
C773        C  0.16412298  0.69006972  0.62483404    -0.12100
C774        C  0.14448533  0.66867703  0.65534541    -0.13600
C775        C  0.14882723  0.68661804  0.82793898    -0.12100
C776        C  0.16457472  0.70029904  0.86532874    -0.13600
C777        C  0.00482633  0.70332124  0.64376816    -0.12100
C778        C  0.00393600  0.68299385  0.67595230    -0.13600
C779        C  0.50775150  0.67391988  0.85226846    -0.12100
C780        C  0.50902581  0.69150062  0.88719819    -0.13600
C781        C  0.00319033  0.15455193  0.30642268     0.87700
C782        C  0.52787803  0.13827868  0.30094729    -0.52500
C783        C  0.53050646  0.12785941  0.25500199     0.10600
C784        C  0.99628855  0.12318218  0.22347566     0.21600
C785        C  0.00817993  0.17944633  0.26316103    -0.53200
C786        C  0.50355172  0.16321232  0.21965813     0.10700
C787        C  0.96664086  0.12129165  0.29983342    -0.52800
C788        C  0.96035903  0.10316396  0.25648048     0.11300
H789        H  0.54693679  0.14135984  0.32983409     0.15800
H790        H  0.99313085  0.10963095  0.18833084     0.01600
H791        H  0.01351642  0.20747969  0.26690964     0.16100
H792        H  0.94839948  0.11209292  0.33030261     0.15900
C793        C  0.62803977  0.16508344  0.28550604     0.87700
C794        C  0.61123564  0.12406961  0.29552603    -0.52500
C795        C  0.59602095  0.10099913  0.25675434     0.10600
C796        C  0.58949235  0.12218515  0.21501345     0.21600
C797        C  0.65018660  0.17308483  0.24036354    -0.53200
C798        C  0.62996725  0.15295891  0.20196831     0.10700
C799        C  0.59652437  0.17058754  0.26962142    -0.52800
C800        C  0.57113521  0.14358552  0.23925927     0.11300
H801        H  0.61495565  0.11484086  0.33055119     0.15800
H802        H  0.57340802  0.10463031  0.18430290     0.01600
H803        H  0.67804007  0.19623444  0.23742612     0.16100
H804        H  0.59126216  0.19004141  0.28869486     0.15900
C805        C  0.63001156  0.03397619  0.29033844     0.87700
C806        C  0.59059478  0.00462410  0.29653956    -0.52500
C807        C  0.56720570  0.99904902  0.25861945     0.10600
C808        C  0.58615247  0.03205784  0.22169888     0.21600
C809        C  0.64209404  0.02908061  0.24147929    -0.53200
C810        C  0.62069458  0.02949603  0.20469662     0.10700
C811        C  0.62842918  0.06858241  0.28677976    -0.52800
C812        C  0.60356404  0.06858437  0.25391066     0.11300
H813        H  0.58261434  0.48889424  0.32960335     0.15800
H814        H  0.56769423  0.03133496  0.19229656     0.01600
H815        H  0.66688711  0.02731753  0.23616164     0.16100
H816        H  0.64645906  0.09129278  0.30987086     0.15900
C817        C  0.00114917  0.39527287  0.28034606     0.87700
C818        C  0.96840258  0.40050411  0.28618579    -0.52500
C819        C  0.96569498  0.42532027  0.25583922     0.10600
C820        C  0.49903725  0.44248412  0.21983243     0.21600
C821        C  0.49921731  0.38357250  0.22921423    -0.53200
C822        C  0.99840204  0.40757140  0.19657288     0.10700
C823        C  0.53426372  0.43286424  0.28269987    -0.52800
C824        C  0.53443217  0.45961834  0.25338514     0.11300
H825        H  0.94793959  0.38269854  0.31161269     0.15800
H826        H  0.49821683  0.46212708  0.19363362     0.01600
H827        H  0.49921254  0.35850071  0.21937978     0.16100
H828        H  0.55695034  0.43615691  0.30529475     0.15900
C829        C  0.86881928  0.40186827  0.29088342     0.87700
C830        C  0.86923879  0.43748664  0.28625786    -0.52500
C831        C  0.89432501  0.46261138  0.25448158     0.10600
C832        C  0.91191783  0.44347246  0.22276610     0.21600
C833        C  0.85674371  0.38432613  0.24224604    -0.53200
C834        C  0.87753377  0.40586903  0.20555118     0.10700
C835        C  0.90856355  0.41237296  0.29775539    -0.52800
C836        C  0.93166915  0.43026421  0.26027986     0.11300
H837        H  0.85101959  0.44214297  0.30882713     0.15800
H838        H  0.92996848  0.46094045  0.19345771     0.01600
H839        H  0.83221914  0.35765064  0.23692368     0.16100
H840        H  0.91680328  0.40491883  0.33098774     0.15900
C841        C  0.86749729  0.02872252  0.29505355     0.87700
C842        C  0.89555918  0.06720605  0.28146105    -0.52500
C843        C  0.92109114  0.07022277  0.24814681     0.10600
C844        C  0.90681884  0.03152152  0.22167153     0.21600
C845        C  0.84474093  0.01410587  0.24953590    -0.53200
C846        C  0.86515778  0.01788449  0.20999236     0.10700
C847        C  0.88961867  0.00910935  0.30215471    -0.52800
C848        C  0.90404449  0.00325046  0.26118851     0.11300
H849        H  0.89632971  0.09013328  0.30028039     0.15800
H850        H  0.92339643  0.03305286  0.19008103     0.01600
H851        H  0.81581579  0.00645099  0.24761434     0.16100
H852        H  0.88822762  0.49550136  0.33602621     0.15900
O853        O  0.75601661  0.10140994  0.45265896    -0.78900
O854        O  0.77714453  0.02617145  0.10978425    -0.78900
O855        O  0.66977132  0.02027696  0.04760169    -0.78600
O856        O  0.82409038  0.07417004  0.52326382    -0.78900
O857        O  0.70970592  0.03050114  0.10594533    -0.79000
O858        O  0.81567047  0.09736227  0.45873372    -0.78900
O859        O  0.80498938  0.01054261  0.05572710    -0.78900
O860        O  0.72228080  0.08276783  0.01554423    -0.79000
C861        C  0.74198644  0.10812127  0.48756144     1.10800
C862        C  0.80279106  0.01957525  0.09828223     1.10700
C863        C  0.67922143  0.02742823  0.09135224     1.10800
C864        C  0.83378057  0.10086287  0.49619259     1.10700
O865        O  0.78101165  0.02541205  0.41365955    -0.78900
O866        O  0.67749550  0.46434707  0.05017806    -0.79000
O867        O  0.67185372  0.03617598  0.44978308    -0.78900
O868        O  0.75217803  0.47588292  0.97868443    -0.78900
O869        O  0.73953328  0.46043140  0.05418494    -0.79000
O870        O  0.71405340  0.02946314  0.41039375    -0.78900
O871        O  0.82454506  0.02489561  0.45899710    -0.78900
O872        O  0.68441536  0.48018744  0.97455109    -0.79000
Co873      Co  0.76421795  0.05925711  0.44383857     1.51500
Co874      Co  0.72785748  0.49875205  0.07637725     1.51700
Co875      Co  0.70513403  0.03251808  0.99316067     1.51600
Co876      Co  0.78781389  0.02642832  0.49793556     1.51500
O877        O  0.74912118  0.03509073  0.01848158    -1.40800
C878        C  0.81147633  0.02488188  0.41766874     1.10700
C879        C  0.66862443  0.45637685  0.00661203     1.10800
C880        C  0.68519272  0.03306584  0.41065245     1.10700
C881        C  0.74324448  0.45255830  0.01170761     1.10700
O882        O  0.93285080  0.21217442  0.45992594    -0.78900
O883        O  0.50044444  0.32339122  0.10079189    -0.78900
O884        O  0.51738428  0.22431022  0.06411374    -0.78900
O885        O  0.95100265  0.31028517  0.00800061    -0.78900
O886        O  0.50231167  0.25550524  0.11311712    -0.79000
O887        O  0.93035041  0.27241044  0.44897562    -0.78900
O888        O  0.01309924  0.36168443  0.03991523    -0.78900
O889        O  0.95416032  0.20567478  0.02753392    -0.79000
C890        C  0.92826094  0.19522243  0.49852513     1.10800
C891        C  0.50432725  0.35345785  0.08361097     1.10700
C892        C  0.50785295  0.22864383  0.10549984     1.10800
C893        C  0.92475067  0.28906553  0.48194039     1.10700
O894        O  0.00319491  0.31059969  0.40532771    -0.78900
O895        O  0.56924661  0.28883676  0.05854561    -0.79000
O896        O  0.50392582  0.20087012  0.46906510    -0.78900
O897        O  0.55320641  0.34258770  0.97171647    -0.78900
O898        O  0.56746387  0.35163582  0.04808013    -0.79000
O899        O  0.00474779  0.24190486  0.41740593    -0.78900
O900        O  0.99918566  0.35617387  0.43958155    -0.78900
O901        O  0.55381385  0.27329535  0.98353459    -0.79000
Co902      Co  0.97201771  0.26234865  0.44291466     1.51500
Co903      Co  0.53154957  0.30284821  0.07636258     1.51700
Co904      Co  0.50285202  0.23973921  0.00293012     1.51600
Co905      Co  0.00085903  0.32424599  0.98760957     1.51500
O906        O  0.49580281  0.28042141  0.01760415    -1.40800
C907        C  0.00155244  0.34052183  0.40197825     1.10700
C908        C  0.57735266  0.28408123  0.01667737     1.10800
C909        C  0.00560529  0.21193958  0.42625076     1.10700
C910        C  0.57613308  0.35975203  0.00459673     1.10700
O911        O  0.68462931  0.28822998  0.45181219    -0.78900
O912        O  0.78633968  0.31736138  0.10485420    -0.78900
O913        O  0.68729701  0.20588181  0.04738597    -0.78900
O914        O  0.77563333  0.35873747  0.01625453    -0.78900
O915        O  0.71669976  0.24725753  0.10396465    -0.79000
O916        O  0.74644098  0.34854482  0.44940893    -0.78900
O917        O  0.82727026  0.34677865  0.04851407    -0.78900
O918        O  0.67341522  0.25584365  0.01577798    -0.79000
C919        C  0.66645136  0.27541250  0.48914875     1.10800
C920        C  0.81736427  0.34429806  0.09180695     1.10700
C921        C  0.69022902  0.21593926  0.09068992     1.10800
C922        C  0.75746884  0.36624401  0.48746972     1.10700
O923        O  0.78513684  0.31464892  0.40900727    -0.78900
O924        O  0.75281849  0.21775995  0.04890063    -0.79000
O925        O  0.66886683  0.20477547  0.44998578    -0.78900
O926        O  0.81226599  0.29337880  0.97422744    -0.78900
O927        O  0.81705048  0.28179474  0.04974513    -0.79000
O928        O  0.71525487  0.24682519  0.40765089    -0.78900
O929        O  0.82681520  0.36264339  0.45066153    -0.78900
O930        O  0.73954315  0.22081714  0.97307386    -0.79000
Co931      Co  0.73499586  0.29731266  0.43941880     1.51500
Co932      Co  0.76647592  0.26768498  0.07309856     1.51700
Co933      Co  0.70683502  0.24000941  0.99142788     1.51600
Co934      Co  0.79243536  0.32571604  0.99253193     1.51500
O935        O  0.74754518  0.28511433  0.01446437    -1.40800
C936        C  0.81416479  0.34669005  0.41070959     1.10700
C937        C  0.74886741  0.20641912  0.00618597     1.10800
C938        C  0.68315614  0.21786338  0.40951082     1.10700
C939        C  0.82764457  0.28487521  0.00682739     1.10700
C940        C  0.63752394  0.28239406  0.49998621    -0.12100
C941        C  0.61152291  0.28599136  0.00817240    -0.13600
C942        C  0.85988402  0.28282046  0.99624783    -0.12100
C943        C  0.88896486  0.28455042  0.48892889    -0.13600
C944        C  0.74382253  0.41965559  0.00300347    -0.12100
C945        C  0.74957551  0.39477410  0.49665899    -0.13600
C946        C  0.74732219  0.14406918  0.49338250    -0.12100
C947        C  0.75009154  0.17377249  0.99730323    -0.13600
C948        C  0.61069643  0.39151086  0.99408102    -0.12100
C949        C  0.63847368  0.42089219  0.99493825    -0.13600
C950        C  0.89449041  0.16285394  0.50692857    -0.12100
C951        C  0.86617887  0.13444112  0.50587763    -0.13600
C952        C  0.82902521  0.02053370  0.13340593    -0.12100
C953        C  0.84914450  0.01931184  0.16419040    -0.13600
C954        C  0.84599314  0.02594420  0.33811904    -0.12100
C955        C  0.82986529  0.02373370  0.37484492    -0.13600
C956        C  0.84279453  0.37165781  0.12613481    -0.12100
C957        C  0.86334292  0.39203712  0.15746038    -0.13600
C958        C  0.84674478  0.37935400  0.33084047    -0.12100
C959        C  0.83231925  0.36358710  0.36721565    -0.13600
C960        C  0.50045844  0.37929477  0.11443854    -0.12100
C961        C  0.49877455  0.39792746  0.14661974    -0.13600
C962        C  0.00279546  0.37115668  0.31808765    -0.12100
C963        C  0.00368443  0.35668098  0.35542901    -0.13600
C964        C  0.63397169  0.02970253  0.15648747    -0.12100
C965        C  0.65383259  0.02970328  0.12479585    -0.13600
C966        C  0.65270080  0.03357518  0.33011199    -0.12100
C967        C  0.66751419  0.03213583  0.36644372    -0.13600
C968        C  0.66409812  0.19011108  0.12478516    -0.12100
C969        C  0.64449623  0.16873383  0.15533575    -0.13600
C970        C  0.64884216  0.18657565  0.32798997    -0.12100
C971        C  0.66457499  0.20023243  0.36540224    -0.13600
C972        C  0.50475091  0.20332193  0.14379777    -0.12100
C973        C  0.50384279  0.18298320  0.17597683    -0.13600
C974        C  0.00767856  0.17387806  0.35227201    -0.12100
C975        C  0.00897815  0.19148177  0.38718482    -0.13600
C976        C  0.00324244  0.15458181  0.80641637     0.87700
C977        C  0.52784506  0.13819985  0.80097178    -0.52500
C978        C  0.53046766  0.12777975  0.75502298     0.10600
C979        C  0.99628387  0.12316965  0.72348790     0.21600
C980        C  0.00830890  0.17948946  0.76313960    -0.53200
C981        C  0.50363936  0.16323061  0.71964459     0.10700
C982        C  0.96664583  0.12138520  0.79981059    -0.52800
C983        C  0.96034628  0.10322006  0.75648361     0.11300
H984        H  0.54689416  0.14125103  0.82985728     0.15800
H985        H  0.99310239  0.10959853  0.68835267     0.01600
H986        H  0.01370886  0.20754526  0.76687206     0.16100
H987        H  0.94839977  0.11224259  0.83027218     0.15900
C988        C  0.62802004  0.16508714  0.78549209     0.87700
C989        C  0.61126287  0.12408235  0.79554586    -0.52500
C990        C  0.59603564  0.10098390  0.75679874     0.10600
C991        C  0.58947597  0.12213485  0.71504176     0.21600
C992        C  0.65015639  0.17308598  0.74035104    -0.53200
C993        C  0.62994203  0.15292763  0.70197783     0.10700
C994        C  0.59647779  0.17054677  0.76961302    -0.52800
C995        C  0.57109650  0.14351939  0.73927501     0.11300
H996        H  0.61500124  0.11488573  0.83058305     0.15800
H997        H  0.57339603  0.10456101  0.68434268     0.01600
H998        H  0.67800277  0.19624681  0.73739792     0.16100
H999        H  0.59119627  0.18999114  0.78867734     0.15900
C1000       C  0.63000201  0.03393470  0.79037334     0.87700
C1001       C  0.59059723  0.00455061  0.79652940    -0.52500
C1002       C  0.56721827  0.99899151  0.75860380     0.10600
C1003       C  0.58616337  0.03203601  0.72172590     0.21600
C1004       C  0.64212603  0.02910224  0.74151300    -0.53200
C1005       C  0.62073439  0.02952112  0.70472522     0.10700
C1006       C  0.62838028  0.06852047  0.78687996    -0.52800
C1007       C  0.60353710  0.06853967  0.75399037     0.11300
H1008       H  0.58261935  0.48879993  0.82956907     0.15800
H1009       H  0.56771351  0.03131919  0.69231663     0.01600
H1010       H  0.66693198  0.02736105  0.73620179     0.16100
H1011       H  0.64638914  0.09121124  0.81000918     0.15900
C1012       C  0.00112820  0.39522909  0.78035617     0.87700
C1013       C  0.96841349  0.40050528  0.78624987    -0.52500
C1014       C  0.96569953  0.42531266  0.75588920     0.10600
C1015       C  0.49901905  0.44244151  0.71984871     0.21600
C1016       C  0.49914061  0.38350069  0.72923257    -0.53200
C1017       C  0.99833119  0.40750232  0.69659240     0.10700
C1018       C  0.53427204  0.43280358  0.78266450    -0.52800
C1019       C  0.53443533  0.45956365  0.75336029     0.11300
H1020       H  0.94797390  0.38272922  0.81171806     0.15800
H1021       H  0.49819877  0.46208385  0.69364813     0.01600
H1022       H  0.49910547  0.35841358  0.71939920     0.16100
H1023       H  0.55696080  0.43607958  0.80521395     0.15900
C1024       C  0.86881505  0.40188955  0.79087642     0.87700
C1025       C  0.86927326  0.43752667  0.78629107    -0.52500
C1026       C  0.89437250  0.46265512  0.75453261     0.10600
C1027       C  0.91195127  0.44350786  0.72280110     0.21600
C1028       C  0.85673830  0.38437720  0.74222574    -0.53200
C1029       C  0.87755113  0.40592564  0.70555032     0.10700
C1030       C  0.90854416  0.41234930  0.79775835    -0.52800
C1031       C  0.93167106  0.43025481  0.76030876     0.11300
H1032       H  0.85105776  0.44218609  0.80886409     0.15800
H1033       H  0.93001983  0.46098191  0.69350993     0.01600
H1034       H  0.83220353  0.35771289  0.73688182     0.16100
H1035       H  0.91675472  0.40486387  0.83098842     0.15900
C1036       C  0.86751439  0.02873716  0.79512161     0.87700
C1037       C  0.89556089  0.06722399  0.78152755    -0.52500
C1038       C  0.92108756  0.07025373  0.74819760     0.10600
C1039       C  0.90683211  0.03155333  0.72172534     0.21600
C1040       C  0.84475275  0.01411173  0.74960558    -0.53200
C1041       C  0.86516526  0.01789250  0.71005596     0.10700
C1042       C  0.88965745  0.00914452  0.80221542    -0.52800
C1043       C  0.90408275  0.00329206  0.76124222     0.11300
H1044       H  0.89631133  0.09014351  0.80033970     0.15800
H1045       H  0.92341068  0.03309533  0.69013102     0.01600
H1046       H  0.81582015  0.00642877  0.74769301     0.16100
H1047       H  0.88827727  0.49553834  0.83608523     0.15900
O1048       O  0.75593417  0.10139336  0.95262160    -0.78900
O1049       O  0.77714789  0.02609121  0.60976735    -0.78900
O1050       O  0.66981049  0.02030223  0.54761236    -0.78600
O1051       O  0.82404630  0.07424318  0.02328515    -0.78900
O1052       O  0.70973837  0.03048081  0.60595023    -0.79000
O1053       O  0.81562238  0.09741001  0.95873597    -0.78900
O1054       O  0.80498108  0.01044800  0.55570805    -0.78900
O1055       O  0.72234462  0.08277619  0.51556529    -0.79000
C1056       C  0.74190551  0.10810746  0.98752283     1.10800
C1057       C  0.80278160  0.01947425  0.59826999     1.10700
C1058       C  0.67926171  0.02743380  0.59136751     1.10800
C1059       C  0.83372560  0.10092883  0.99620756     1.10700
O1060       O  0.78102058  0.02544979  0.91368296    -0.78900
O1061       O  0.67749211  0.46434755  0.55015221    -0.79000
O1062       O  0.67180508  0.03612456  0.94978902    -0.78900
O1063       O  0.75215586  0.47583179  0.47864779    -0.78900
O1064       O  0.73949952  0.46037389  0.55414304    -0.79000
O1065       O  0.71402320  0.02942358  0.91042339    -0.78900
O1066       O  0.82456162  0.02497946  0.95905262    -0.78900
O1067       O  0.68440981  0.48019691  0.47452639    -0.79000
Co1068     Co  0.76418293  0.05926733  0.94384406     1.51500
Co1069     Co  0.72785988  0.49871413  0.57635453     1.51700
Co1070     Co  0.70516605  0.03252777  0.49315713     1.51600
Co1071     Co  0.78780637  0.02649226  0.99795693     1.51500
O1072       O  0.74914527  0.03506163  0.51846686    -1.40800
C1073       C  0.81149003  0.02493152  0.91771648     1.10700
C1074       C  0.66861160  0.45638648  0.50658756     1.10800
C1075       C  0.68515441  0.03301104  0.91067069     1.10700
C1076       C  0.74321066  0.45250231  0.51166580     1.10700
O1077       O  0.93283486  0.21218364  0.95994442    -0.78900
O1078       O  0.50040106  0.32333460  0.60080072    -0.78900
O1079       O  0.51741845  0.22430903  0.56408044    -0.78900
O1080       O  0.95098078  0.31024680  0.50800044    -0.78900
O1081       O  0.50232364  0.25547542  0.61310016    -0.79000
O1082       O  0.93035341  0.27242395  0.94900104    -0.78900
O1083       O  0.01304987  0.36164441  0.53994377    -0.78900
O1084       O  0.95418527  0.20567291  0.52751421    -0.79000
C1085       C  0.92823451  0.19523985  0.99855017     1.10800
C1086       C  0.50426665  0.35339770  0.58363277     1.10700
C1087       C  0.50789190  0.22863210  0.60547359     1.10800
C1088       C  0.92476474  0.28909921  0.98195139     1.10700
O1089       O  0.00319997  0.31058300  0.90534174    -0.78900
O1090       O  0.56925961  0.28885546  0.55854050    -0.79000
O1091       O  0.50390581  0.20085676  0.96908333    -0.78900
O1092       O  0.55318988  0.34259626  0.47173116    -0.78900
O1093       O  0.56743658  0.35163842  0.54809896    -0.79000
O1094       O  0.00473036  0.24188838  0.91741672    -0.78900
O1095       O  0.99920871  0.35617596  0.93956621    -0.78900
O1096       O  0.55383936  0.27330868  0.48352665    -0.79000
Co1097     Co  0.97201173  0.26234614  0.94293215     1.51500
Co1098     Co  0.53153919  0.30283354  0.57636250     1.51700
Co1099     Co  0.50287396  0.23974598  0.50291488     1.51600
Co1100     Co  0.00084085  0.32423324  0.48761204     1.51500
O1101       O  0.49580513  0.28041439  0.51759220    -1.40800
C1102       C  0.00155919  0.34050361  0.90197480     1.10700
C1103       C  0.57737137  0.28409014  0.51668013     1.10800
C1104       C  0.00560650  0.21193354  0.92626689     1.10700
C1105       C  0.57610850  0.35976368  0.50461668     1.10700
O1106       O  0.68463125  0.28829552  0.95173404    -0.78900
O1107       O  0.78637858  0.31736459  0.60490850    -0.78900
O1108       O  0.68734099  0.20585366  0.54746105    -0.78900
O1109       O  0.77564444  0.35871741  0.51627236    -0.78900
O1110       O  0.71673879  0.24722576  0.60404853    -0.79000
O1111       O  0.74645547  0.34860572  0.94937722    -0.78900
O1112       O  0.82728904  0.34677227  0.54854087    -0.78900
O1113       O  0.67343343  0.25581196  0.51588317    -0.79000
C1114       C  0.66644278  0.27545768  0.98905724     1.10800
C1115       C  0.81739374  0.34430774  0.59183727     1.10700
C1116       C  0.69027033  0.21590628  0.59076425     1.10800
C1117       C  0.75747368  0.36628605  0.98745417     1.10700
O1118       O  0.78513529  0.31468745  0.90898222    -0.78900
O1119       O  0.75287415  0.21775741  0.54896971    -0.79000
O1120       O  0.66885960  0.20481669  0.94989948    -0.78900
O1121       O  0.81226370  0.29334319  0.47427441    -0.78900
O1122       O  0.81708810  0.28180181  0.54979727    -0.79000
O1123       O  0.71525070  0.24688476  0.90758108    -0.78900
O1124       O  0.82681044  0.36268203  0.95063879    -0.78900
O1125       O  0.73956417  0.22079329  0.47314818    -0.79000
Co1126     Co  0.73499376  0.29736753  0.93935999     1.51500
Co1127     Co  0.76651648  0.26767836  0.57316602     1.51700
Co1128     Co  0.70685229  0.23997962  0.49150994     1.51600
Co1129     Co  0.79244356  0.32568849  0.49256937     1.51500
O1130       O  0.74756511  0.28508952  0.51453160    -1.40800
C1131       C  0.81415862  0.34672905  0.91068656     1.10700
C1132       C  0.74891425  0.20641251  0.50625554     1.10800
C1133       C  0.68315247  0.21792160  0.90943313     1.10700
C1134       C  0.82765438  0.28485202  0.50687055     1.10700
C1135       C  0.63751676  0.28243462  0.99990682    -0.12100
C1136       C  0.61153459  0.28597094  0.50820869    -0.13600
C1137       C  0.85987555  0.28277630  0.49626882    -0.12100
C1138       C  0.88898058  0.28459942  0.98893162    -0.13600
C1139       C  0.74379265  0.41960172  0.50296634    -0.12100
C1140       C  0.74959128  0.39482134  0.99666815    -0.13600
C1141       C  0.74723413  0.14405409  0.99332823    -0.12100
C1142       C  0.75016432  0.17378032  0.49736792    -0.13600
C1143       C  0.61066462  0.39153081  0.49410002    -0.12100
C1144       C  0.63844376  0.42091062  0.49492510    -0.13600
C1145       C  0.89444419  0.16290170  0.00696535    -0.12100
C1146       C  0.86611505  0.13450937  0.00589749    -0.13600
C1147       C  0.82900682  0.02042318  0.63341114    -0.12100
C1148       C  0.84912477  0.01923954  0.66423349    -0.13600
C1149       C  0.84601123  0.02595373  0.83819129    -0.12100
C1150       C  0.82988202  0.02375777  0.87491054    -0.13600
C1151       C  0.84282752  0.37169648  0.62613974    -0.12100
C1152       C  0.86337765  0.39209674  0.65745102    -0.13600
C1153       C  0.84672399  0.37937335  0.83081303    -0.12100
C1154       C  0.83230568  0.36362007  0.86719392    -0.13600
C1155       C  0.50037328  0.37921394  0.61446756    -0.12100
C1156       C  0.49868693  0.39784737  0.64664403    -0.13600
C1157       C  0.00277936  0.37111123  0.81808473    -0.12100
C1158       C  0.00367812  0.35664044  0.85542087    -0.13600
C1159       C  0.63402338  0.02972823  0.65651823    -0.12100
C1160       C  0.65388248  0.02971927  0.62482636    -0.13600
C1161       C  0.65268009  0.03351820  0.83013720    -0.12100
C1162       C  0.66748435  0.03206968  0.86646444    -0.13600
C1163       C  0.66412300  0.19006970  0.62483410    -0.12100
C1164       C  0.64448535  0.16867698  0.65534544    -0.13600
C1165       C  0.64882724  0.18661804  0.82793899    -0.12100
C1166       C  0.66457475  0.20029907  0.86532873    -0.13600
C1167       C  0.50482625  0.20332111  0.64376813    -0.12100
C1168       C  0.50393594  0.18299373  0.67595228    -0.13600
C1169       C  0.00775150  0.17391992  0.85226845    -0.12100
C1170       C  0.00902582  0.19150066  0.88719818    -0.13600
C1171       C  0.00319031  0.65455190  0.30642269     0.87700
C1172       C  0.52787804  0.63827868  0.30094730    -0.52500
C1173       C  0.53050647  0.62785939  0.25500199     0.10600
C1174       C  0.99628853  0.62318215  0.22347567     0.21600
C1175       C  0.00817991  0.67944629  0.26316103    -0.53200
C1176       C  0.50355172  0.66321231  0.21965813     0.10700
C1177       C  0.96664084  0.62129161  0.29983343    -0.52800
C1178       C  0.96035901  0.60316392  0.25648049     0.11300
H1179       H  0.54693680  0.64135986  0.32983408     0.15800
H1180       H  0.99313083  0.60963091  0.18833085     0.01600
H1181       H  0.01351640  0.70747965  0.26690963     0.16100
H1182       H  0.94839946  0.61209288  0.33030262     0.15900
C1183       C  0.62803979  0.66508344  0.28550605     0.87700
C1184       C  0.61123564  0.62406961  0.29552603    -0.52500
C1185       C  0.59602096  0.60099914  0.25675433     0.10600
C1186       C  0.58949238  0.62218517  0.21501345     0.21600
C1187       C  0.65018661  0.67308485  0.24036356    -0.53200
C1188       C  0.62996729  0.65295895  0.20196831     0.10700
C1189       C  0.59652437  0.67058752  0.26962145    -0.52800
C1190       C  0.57113522  0.64358551  0.23925927     0.11300
H1191       H  0.61495561  0.61484083  0.33055120     0.15800
H1192       H  0.57340804  0.60463032  0.18430290     0.01600
H1193       H  0.67804010  0.69623456  0.23742613     0.16100
H1194       H  0.59126217  0.69004137  0.28869486     0.15900
C1195       C  0.63001159  0.53397626  0.29033843     0.87700
C1196       C  0.59059481  0.50462417  0.29653958    -0.52500
C1197       C  0.56720572  0.49904906  0.25861947     0.10600
C1198       C  0.58615248  0.53205787  0.22169888     0.21600
C1199       C  0.64209404  0.52908061  0.24147930    -0.53200
C1200       C  0.62069456  0.52949601  0.20469662     0.10700
C1201       C  0.62842924  0.56858248  0.28677969    -0.52800
C1202       C  0.60356408  0.56858441  0.25391062     0.11300
H1203       H  0.58261430  0.98889419  0.32960333     0.15800
H1204       H  0.56769424  0.53133500  0.19229657     0.01600
H1205       H  0.66688708  0.52731749  0.23616166     0.16100
H1206       H  0.64645914  0.59129288  0.30987075     0.15900
C1207       C  0.00114916  0.89527284  0.28034606     0.87700
C1208       C  0.96840255  0.90050408  0.28618578    -0.52500
C1209       C  0.96569496  0.92532024  0.25583922     0.10600
C1210       C  0.49903724  0.94248409  0.21983240     0.21600
C1211       C  0.49921729  0.88357247  0.22921420    -0.53200
C1212       C  0.99840203  0.90757137  0.19657288     0.10700
C1213       C  0.53426370  0.93286421  0.28269987    -0.52800
C1214       C  0.53443215  0.95961831  0.25338514     0.11300
H1215       H  0.94793956  0.88269850  0.31161268     0.15800
H1216       H  0.49821681  0.96212703  0.19363362     0.01600
H1217       H  0.49921252  0.85850067  0.21937977     0.16100
H1218       H  0.55695031  0.93615687  0.30529476     0.15900
C1219       C  0.86881928  0.90186829  0.29088340     0.87700
C1220       C  0.86923880  0.93748666  0.28625783    -0.52500
C1221       C  0.89432502  0.96261138  0.25448154     0.10600
C1222       C  0.91191783  0.94347244  0.22276607     0.21600
C1223       C  0.85674369  0.88432611  0.24224601    -0.53200
C1224       C  0.87753376  0.90586900  0.20555114     0.10700
C1225       C  0.90856354  0.91237294  0.29775537    -0.52800
C1226       C  0.93166913  0.93026417  0.26027984     0.11300
H1227       H  0.85101963  0.94214301  0.30882712     0.15800
H1228       H  0.92996848  0.96094042  0.19345771     0.01600
H1229       H  0.83221912  0.85765062  0.23692367     0.16100
H1230       H  0.91680326  0.90491881  0.33098771     0.15900
C1231       C  0.86749729  0.52872253  0.29505355     0.87700
C1232       C  0.89555918  0.56720604  0.28146102    -0.52500
C1233       C  0.92109113  0.57022274  0.24814680     0.10600
C1234       C  0.90681882  0.53152148  0.22167153     0.21600
C1235       C  0.84474091  0.51410585  0.24953591    -0.53200
C1236       C  0.86515775  0.51788445  0.20999237     0.10700
C1237       C  0.88961864  0.50910934  0.30215473    -0.52800
C1238       C  0.90404448  0.50325045  0.26118854     0.11300
H1239       H  0.89632972  0.59013328  0.30028034     0.15800
H1240       H  0.92339641  0.53305282  0.19008103     0.01600
H1241       H  0.81581577  0.50645096  0.24761436     0.16100
H1242       H  0.88822765  0.99550136  0.33602620     0.15900
O1243       O  0.75601659  0.60140991  0.45265896    -0.78900
O1244       O  0.77714453  0.52617144  0.10978426    -0.78900
O1245       O  0.66977130  0.52027693  0.04760170    -0.78600
O1246       O  0.82409039  0.57417007  0.52326383    -0.78900
O1247       O  0.70970590  0.53050113  0.10594533    -0.79000
O1248       O  0.81567045  0.59736224  0.45873371    -0.78900
O1249       O  0.80498937  0.51054258  0.05572710    -0.78900
O1250       O  0.72228078  0.58276780  0.01554423    -0.79000
C1251       C  0.74198642  0.60812124  0.48756145     1.10800
C1252       C  0.80279105  0.51957522  0.09828223     1.10700
C1253       C  0.67922141  0.52742820  0.09135225     1.10800
C1254       C  0.83378056  0.60086287  0.49619258     1.10700
O1255       O  0.78101162  0.52541201  0.41365954    -0.78900
O1256       O  0.67749549  0.96434707  0.05017807    -0.79000
O1257       O  0.67185369  0.53617594  0.44978312    -0.78900
O1258       O  0.75217803  0.97588293  0.97868446    -0.78900
O1259       O  0.73953327  0.96043140  0.05418496    -0.79000
O1260       O  0.71405334  0.52946312  0.41039370    -0.78900
O1261       O  0.82454507  0.52489564  0.45899709    -0.78900
O1262       O  0.68441537  0.98018745  0.97455111    -0.79000
Co1263     Co  0.76421792  0.55925708  0.44383855     1.51500
Co1264     Co  0.72785747  0.99875205  0.07637726     1.51700
Co1265     Co  0.70513401  0.53251806  0.99316066     1.51600
Co1266     Co  0.78781391  0.52642839  0.49793551     1.51500
O1267       O  0.74912119  0.53509075  0.01848156    -1.40800
C1268       C  0.81147631  0.52488184  0.41766874     1.10700
C1269       C  0.66862442  0.95637686  0.00661204     1.10800
C1270       C  0.68519265  0.53306579  0.41065246     1.10700
C1271       C  0.74324445  0.95255830  0.01170762     1.10700
O1272       O  0.93285078  0.71217442  0.45992593    -0.78900
O1273       O  0.50044442  0.82339120  0.10079188    -0.78900
O1274       O  0.51738425  0.72431018  0.06411374    -0.78900
O1275       O  0.95100266  0.81028514  0.00800062    -0.78900
O1276       O  0.50231164  0.75550520  0.11311712    -0.79000
O1277       O  0.93035046  0.77241054  0.44897555    -0.78900
O1278       O  0.01309922  0.86168439  0.03991523    -0.78900
O1279       O  0.95416032  0.70567475  0.02753398    -0.79000
C1280       C  0.92826094  0.69522241  0.49852511     1.10800
C1281       C  0.50432722  0.85345781  0.08361092     1.10700
C1282       C  0.50785293  0.72864379  0.10549984     1.10800
C1283       C  0.92475068  0.78906555  0.48194040     1.10700
O1284       O  0.00319497  0.81059973  0.40532775    -0.78900
O1285       O  0.56924659  0.78883672  0.05854562    -0.79000
O1286       O  0.50392583  0.70087015  0.46906509    -0.78900
O1287       O  0.55320641  0.84258768  0.97171647    -0.78900
O1288       O  0.56746386  0.85163579  0.04808013    -0.79000
O1289       O  0.00474777  0.74190487  0.41740594    -0.78900
O1290       O  0.99918563  0.85617387  0.43958156    -0.78900
O1291       O  0.55381385  0.77329531  0.98353460    -0.79000
Co1292     Co  0.97201772  0.76234867  0.44291465     1.51500
Co1293     Co  0.53154955  0.80284818  0.07636258     1.51700
Co1294     Co  0.50285200  0.73973917  0.00293012     1.51600
Co1295     Co  0.00085902  0.82424595  0.98760957     1.51500
O1296       O  0.49580279  0.78042137  0.01760415    -1.40800
C1297       C  0.00155244  0.84052183  0.40197827     1.10700
C1298       C  0.57735267  0.78408124  0.01667736     1.10800
C1299       C  0.00560530  0.71193961  0.42625076     1.10700
C1300       C  0.57613307  0.85975201  0.00459673     1.10700
O1301       O  0.68462930  0.78822992  0.45181218    -0.78900
O1302       O  0.78633967  0.81736140  0.10485420    -0.78900
O1303       O  0.68729699  0.70588177  0.04738596    -0.78900
O1304       O  0.77563334  0.85873748  0.01625453    -0.78900
O1305       O  0.71669977  0.74725750  0.10396463    -0.79000
O1306       O  0.74644095  0.84854477  0.44940892    -0.78900
O1307       O  0.82727024  0.84677865  0.04851404    -0.78900
O1308       O  0.67341519  0.75584362  0.01577799    -0.79000
C1309       C  0.66645135  0.77541245  0.48914875     1.10800
C1310       C  0.81736426  0.84429808  0.09180692     1.10700
C1311       C  0.69022902  0.71593924  0.09068991     1.10800
C1312       C  0.75746877  0.86624396  0.48746972     1.10700
O1313       O  0.78513687  0.81464895  0.40900722    -0.78900
O1314       O  0.75281857  0.71776003  0.04890059    -0.79000
O1315       O  0.66886684  0.70477546  0.44998577    -0.78900
O1316       O  0.81226595  0.79337875  0.97422743    -0.78900
O1317       O  0.81705054  0.78179486  0.04974515    -0.79000
O1318       O  0.71525494  0.74682511  0.40765093    -0.78900
O1319       O  0.82681520  0.86264343  0.45066152    -0.78900
O1320       O  0.73954303  0.72081706  0.97307385    -0.79000
Co1321     Co  0.73499587  0.79731263  0.43941877     1.51500
Co1322     Co  0.76647595  0.76768502  0.07309855     1.51700
Co1323     Co  0.70683497  0.74000937  0.99142788     1.51600
Co1324     Co  0.79243534  0.82571601  0.99253192     1.51500
O1325       O  0.74754516  0.78511430  0.01446437    -1.40800
C1326       C  0.81416481  0.84669009  0.41070958     1.10700
C1327       C  0.74886738  0.70641912  0.00618596     1.10800
C1328       C  0.68315617  0.71786335  0.40951082     1.10700
C1329       C  0.82764456  0.78487522  0.00682739     1.10700
C1330       C  0.63752393  0.78239402  0.49998619    -0.12100
C1331       C  0.61152297  0.78599147  0.00817238    -0.13600
C1332       C  0.85988403  0.78282049  0.99624782    -0.12100
C1333       C  0.88896484  0.78455038  0.48892890    -0.13600
C1334       C  0.74382253  0.91965561  0.00300346    -0.12100
C1335       C  0.74957536  0.89477400  0.49665899    -0.13600
C1336       C  0.74732217  0.64406918  0.49338250    -0.12100
C1337       C  0.75009151  0.67377248  0.99730325    -0.13600
C1338       C  0.61069642  0.89151086  0.99408103    -0.12100
C1339       C  0.63847364  0.92089221  0.99493824    -0.13600
C1340       C  0.89449042  0.66285392  0.50692857    -0.12100
C1341       C  0.86617887  0.63444111  0.50587761    -0.13600
C1342       C  0.82902519  0.52053366  0.13340593    -0.12100
C1343       C  0.84914448  0.51931179  0.16419041    -0.13600
C1344       C  0.84599318  0.52594428  0.33811905    -0.12100
C1345       C  0.82986530  0.52373372  0.37484493    -0.13600
C1346       C  0.84279453  0.87165783  0.12613476    -0.12100
C1347       C  0.86334294  0.89203711  0.15746033    -0.13600
C1348       C  0.84674481  0.87935410  0.33084051    -0.12100
C1349       C  0.83231927  0.86358721  0.36721568    -0.13600
C1350       C  0.50045840  0.87929475  0.11443845    -0.12100
C1351       C  0.49877452  0.89792742  0.14661970    -0.13600
C1352       C  0.00279543  0.87115665  0.31808763    -0.12100
C1353       C  0.00368441  0.85668096  0.35542902    -0.13600
C1354       C  0.63397167  0.52970248  0.15648748    -0.12100
C1355       C  0.65383257  0.52970324  0.12479585    -0.13600
C1356       C  0.65270081  0.53357528  0.33011201    -0.12100
C1357       C  0.66751412  0.53213585  0.36644376    -0.13600
C1358       C  0.66409812  0.69011110  0.12478515    -0.12100
C1359       C  0.64449624  0.66873390  0.15533578    -0.13600
C1360       C  0.64884216  0.68657563  0.32798999    -0.12100
C1361       C  0.66457501  0.70023243  0.36540224    -0.13600
C1362       C  0.50475089  0.70332189  0.14379776    -0.12100
C1363       C  0.50384277  0.68298317  0.17597683    -0.13600
C1364       C  0.00767856  0.67387808  0.35227201    -0.12100
C1365       C  0.00897820  0.69148182  0.38718480    -0.13600
C1366       C  0.00324242  0.65458177  0.80641637     0.87700
C1367       C  0.52784508  0.63819984  0.80097172    -0.52500
C1368       C  0.53046769  0.62777980  0.75502290     0.10600
C1369       C  0.99628386  0.62316962  0.72348789     0.21600
C1370       C  0.00830888  0.67948942  0.76313960    -0.53200
C1371       C  0.50363935  0.66323063  0.71964457     0.10700
C1372       C  0.96664582  0.62138516  0.79981059    -0.52800
C1373       C  0.96034627  0.60322003  0.75648360     0.11300
H1374       H  0.54689421  0.64125105  0.82985719     0.15800
H1375       H  0.99310237  0.60959849  0.68835267     0.01600
H1376       H  0.01370884  0.70754522  0.76687207     0.16100
H1377       H  0.94839975  0.61224254  0.83027218     0.15900
C1378       C  0.62802003  0.66508718  0.78549208     0.87700
C1379       C  0.61126278  0.62408237  0.79554584    -0.52500
C1380       C  0.59603555  0.60098393  0.75679873     0.10600
C1381       C  0.58947597  0.62213492  0.71504172     0.21600
C1382       C  0.65015643  0.67308598  0.74035108    -0.53200
C1383       C  0.62994207  0.65292766  0.70197787     0.10700
C1384       C  0.59647783  0.67054689  0.76961293    -0.52800
C1385       C  0.57109654  0.64351952  0.73927491     0.11300
H1386       H  0.61500117  0.61488575  0.83058303     0.15800
H1387       H  0.57339605  0.60456115  0.68434262     0.01600
H1388       H  0.67800282  0.69624680  0.73739798     0.16100
H1389       H  0.59119628  0.68999124  0.78867731     0.15900
C1390       C  0.63000204  0.53393477  0.79037334     0.87700
C1391       C  0.59059728  0.50455065  0.79652940    -0.52500
C1392       C  0.56721830  0.49899153  0.75860385     0.10600
C1393       C  0.58616336  0.53203602  0.72172592     0.21600
C1394       C  0.64212608  0.52910234  0.74151300    -0.53200
C1395       C  0.62073440  0.52952115  0.70472523     0.10700
C1396       C  0.62838025  0.56852053  0.78687997    -0.52800
C1397       C  0.60353705  0.56853970  0.75399037     0.11300
H1398       H  0.58261928  0.98879989  0.82956904     0.15800
H1399       H  0.56771347  0.53131912  0.69231664     0.01600
H1400       H  0.66693208  0.52736124  0.73620179     0.16100
H1401       H  0.64638907  0.59121128  0.81000922     0.15900
C1402       C  0.00112819  0.89522906  0.78035616     0.87700
C1403       C  0.96841348  0.90050526  0.78624984    -0.52500
C1404       C  0.96569952  0.92531263  0.75588915     0.10600
C1405       C  0.49901902  0.94244145  0.71984863     0.21600
C1406       C  0.49914058  0.88350064  0.72923254    -0.53200
C1407       C  0.99833120  0.90750233  0.69659239     0.10700
C1408       C  0.53427202  0.93280356  0.78266441    -0.52800
C1409       C  0.53443533  0.95956361  0.75336017     0.11300
H1410       H  0.94797389  0.88272918  0.81171800     0.15800
H1411       H  0.49819871  0.96208374  0.69364798     0.01600
H1412       H  0.49910545  0.85841354  0.71939921     0.16100
H1413       H  0.55696076  0.93607957  0.80521392     0.15900
C1414       C  0.86881503  0.90188951  0.79087637     0.87700
C1415       C  0.86927325  0.93752663  0.78629104    -0.52500
C1416       C  0.89437249  0.96265510  0.75453258     0.10600
C1417       C  0.91195123  0.94350783  0.72280103     0.21600
C1418       C  0.85673825  0.88437716  0.74222572    -0.53200
C1419       C  0.87755106  0.90592562  0.70555030     0.10700
C1420       C  0.90854414  0.91234923  0.79775824    -0.52800
C1421       C  0.93167103  0.93025475  0.76030862     0.11300
H1422       H  0.85105776  0.94218605  0.80886409     0.15800
H1423       H  0.93001975  0.96098187  0.69350980     0.01600
H1424       H  0.83220348  0.85771285  0.73688182     0.16100
H1425       H  0.91675471  0.90486386  0.83098827     0.15900
C1426       C  0.86751440  0.52873719  0.79512160     0.87700
C1427       C  0.89556088  0.56722402  0.78152749    -0.52500
C1428       C  0.92108755  0.57025373  0.74819755     0.10600
C1429       C  0.90683209  0.53155331  0.72172533     0.21600
C1430       C  0.84475274  0.51411171  0.74960560    -0.53200
C1431       C  0.86516523  0.51789246  0.71005595     0.10700
C1432       C  0.88965747  0.50914456  0.80221545    -0.52800
C1433       C  0.90408276  0.50329208  0.76124224     0.11300
H1434       H  0.89631133  0.59014352  0.80033961     0.15800
H1435       H  0.92341066  0.53309528  0.69013102     0.01600
H1436       H  0.81582013  0.50642873  0.74769303     0.16100
H1437       H  0.88827722  0.99553827  0.83608520     0.15900
O1438       O  0.75593417  0.60139341  0.95262162    -0.78900
O1439       O  0.77714794  0.52609131  0.60976728    -0.78900
O1440       O  0.66981047  0.52030220  0.54761237    -0.78600
O1441       O  0.82404629  0.57424315  0.02328515    -0.78900
O1442       O  0.70973837  0.53048080  0.60595024    -0.79000
O1443       O  0.81562241  0.59741005  0.95873600    -0.78900
O1444       O  0.80498115  0.51044815  0.55570797    -0.78900
O1445       O  0.72234460  0.58277616  0.51556529    -0.79000
C1446       C  0.74190548  0.60810746  0.98752285     1.10800
C1447       C  0.80278164  0.51947432  0.59826992     1.10700
C1448       C  0.67926172  0.52743383  0.59136751     1.10800
C1449       C  0.83372560  0.60092882  0.99620758     1.10700
O1450       O  0.78102068  0.52544999  0.91368293    -0.78900
O1451       O  0.67749210  0.96434755  0.55015221    -0.79000
O1452       O  0.67180504  0.53612451  0.94978903    -0.78900
O1453       O  0.75215583  0.97583173  0.47864779    -0.78900
O1454       O  0.73949947  0.96037384  0.55414303    -0.79000
O1455       O  0.71402328  0.52942374  0.91042335    -0.78900
O1456       O  0.82456161  0.52497945  0.95905262    -0.78900
O1457       O  0.68440983  0.98019694  0.47452640    -0.79000
Co1458     Co  0.76418297  0.55926743  0.94384408     1.51500
Co1459     Co  0.72785985  0.99871410  0.57635453     1.51700
Co1460     Co  0.70516603  0.53252774  0.49315714     1.51600
Co1461     Co  0.78780636  0.52649225  0.99795692     1.51500
O1462       O  0.74914527  0.53506165  0.51846686    -1.40800
C1463       C  0.81149009  0.52493163  0.91771648     1.10700
C1464       C  0.66861160  0.95638650  0.50658756     1.10800
C1465       C  0.68515441  0.53301106  0.91067069     1.10700
C1466       C  0.74321061  0.95250226  0.51166580     1.10700
O1467       O  0.93283493  0.71218356  0.95994439    -0.78900
O1468       O  0.50040105  0.82333456  0.60080070    -0.78900
O1469       O  0.51741847  0.72430906  0.56408043    -0.78900
O1470       O  0.95098077  0.81024677  0.50800050    -0.78900
O1471       O  0.50232366  0.75547545  0.61310012    -0.79000
O1472       O  0.93035338  0.77242390  0.94900107    -0.78900
O1473       O  0.01304984  0.86164438  0.53994379    -0.78900
O1474       O  0.95418528  0.70567293  0.52751420    -0.79000
C1475       C  0.92823453  0.69523980  0.99855018     1.10800
C1476       C  0.50426664  0.85339766  0.58363276     1.10700
C1477       C  0.50789193  0.72863214  0.60547357     1.10800
C1478       C  0.92476475  0.78909923  0.98195138     1.10700
O1479       O  0.00319994  0.81058296  0.90534174    -0.78900
O1480       O  0.56925972  0.78885559  0.55854050    -0.79000
O1481       O  0.50390579  0.70085672  0.96908333    -0.78900
O1482       O  0.55318987  0.84259628  0.47173101    -0.78900
O1483       O  0.56743658  0.85163844  0.54809882    -0.79000
O1484       O  0.00473036  0.74188836  0.91741671    -0.78900
O1485       O  0.99920869  0.85617592  0.93956621    -0.78900
O1486       O  0.55383941  0.77330874  0.48352669    -0.79000
Co1487     Co  0.97201173  0.76234610  0.94293214     1.51500
Co1488     Co  0.53153923  0.80283358  0.57636246     1.51700
Co1489     Co  0.50287398  0.73974601  0.50291488     1.51600
Co1490     Co  0.00084084  0.82423324  0.48761205     1.51500
O1491       O  0.49580515  0.78041441  0.51759219    -1.40800
C1492       C  0.00155917  0.84050358  0.90197480     1.10700
C1493       C  0.57737145  0.78409024  0.51668013     1.10800
C1494       C  0.00560648  0.71193350  0.92626689     1.10700
C1495       C  0.57610849  0.85976370  0.50461654     1.10700
O1496       O  0.68463122  0.78829548  0.95173404    -0.78900
O1497       O  0.78637861  0.81736468  0.60490846    -0.78900
O1498       O  0.68734098  0.70585363  0.54746108    -0.78900
O1499       O  0.77564443  0.85871745  0.51627235    -0.78900
O1500       O  0.71673882  0.74722577  0.60404852    -0.79000
O1501       O  0.74645546  0.84860573  0.94937723    -0.78900
O1502       O  0.82728909  0.84677240  0.54854084    -0.78900
O1503       O  0.67343340  0.75581191  0.51588317    -0.79000
C1504       C  0.66644275  0.77545765  0.98905723     1.10800
C1505       C  0.81739378  0.84430785  0.59183723     1.10700
C1506       C  0.69027035  0.71590627  0.59076428     1.10800
C1507       C  0.75747374  0.86628611  0.98745414     1.10700
O1508       O  0.78513527  0.81468742  0.90898222    -0.78900
O1509       O  0.75287422  0.71775749  0.54896970    -0.79000
O1510       O  0.66885956  0.70481666  0.94989948    -0.78900
O1511       O  0.81226370  0.79334321  0.47427434    -0.78900
O1512       O  0.81708815  0.78180197  0.54979721    -0.79000
O1513       O  0.71525067  0.74688473  0.90758108    -0.78900
O1514       O  0.82681042  0.86268199  0.95063878    -0.78900
O1515       O  0.73956424  0.72079336  0.47314818    -0.79000
Co1516     Co  0.73499374  0.79736751  0.93936000     1.51500
Co1517     Co  0.76651653  0.76767844  0.57316600     1.51700
Co1518     Co  0.70685230  0.73997962  0.49150996     1.51600
Co1519     Co  0.79244358  0.82568853  0.49256936     1.51500
O1520       O  0.74756512  0.78508956  0.51453160    -1.40800
C1521       C  0.81415860  0.84672901  0.91068656     1.10700
C1522       C  0.74891428  0.70641256  0.50625554     1.10800
C1523       C  0.68315244  0.71792156  0.90943314     1.10700
C1524       C  0.82765438  0.78485205  0.50687049     1.10700
C1525       C  0.63751677  0.78243465  0.99990682    -0.12100
C1526       C  0.61153463  0.78597096  0.50820865    -0.13600
C1527       C  0.85987552  0.78277626  0.49626879    -0.12100
C1528       C  0.88898061  0.78459951  0.98893159    -0.13600
C1529       C  0.74379256  0.91960165  0.50296634    -0.12100
C1530       C  0.74959138  0.89482143  0.99666811    -0.13600
C1531       C  0.74723409  0.64405408  0.99332827    -0.12100
C1532       C  0.75016429  0.67378031  0.49736793    -0.13600
C1533       C  0.61066462  0.89153086  0.49409990    -0.12100
C1534       C  0.63844376  0.92091066  0.49492507    -0.13600
C1535       C  0.89444419  0.66290168  0.00696533    -0.12100
C1536       C  0.86611505  0.63450935  0.00589751    -0.13600
C1537       C  0.82900679  0.52042313  0.63341110    -0.12100
C1538       C  0.84912473  0.51923949  0.66423348    -0.13600
C1539       C  0.84601127  0.52595382  0.83819129    -0.12100
C1540       C  0.82988206  0.52375785  0.87491055    -0.13600
C1541       C  0.84282750  0.87169658  0.62613970    -0.12100
C1542       C  0.86337756  0.89209680  0.65745103    -0.13600
C1543       C  0.84672400  0.87937332  0.83081303    -0.12100
C1544       C  0.83230567  0.86362004  0.86719391    -0.13600
C1545       C  0.50037326  0.87921389  0.61446754    -0.12100
C1546       C  0.49868691  0.89784731  0.64664400    -0.13600
C1547       C  0.00277934  0.87111119  0.81808473    -0.12100
C1548       C  0.00367810  0.85664040  0.85542086    -0.13600
C1549       C  0.63402339  0.52972827  0.65651823    -0.12100
C1550       C  0.65388252  0.52971937  0.62482635    -0.13600
C1551       C  0.65268010  0.53351823  0.83013720    -0.12100
C1552       C  0.66748432  0.53206965  0.86646445    -0.13600
C1553       C  0.66412304  0.69006976  0.62483417    -0.12100
C1554       C  0.64448537  0.66867706  0.65534553    -0.13600
C1555       C  0.64882724  0.68661803  0.82793899    -0.12100
C1556       C  0.66457473  0.70029904  0.86532874    -0.13600
C1557       C  0.50482634  0.70332122  0.64376817    -0.12100
C1558       C  0.50393602  0.68299383  0.67595231    -0.13600
C1559       C  0.00775149  0.67391987  0.85226845    -0.12100
C1560       C  0.00902580  0.69150062  0.88719818    -0.13600
loop_ 
_geom_bond_atom_site_label_1 
_geom_bond_atom_site_label_2 
_geom_bond_distance 
_geom_bond_site_symmetry_2 
_ccdc_geom_bond_type 
C1            C7   1.481       .  S
C1            C5   1.536       .  S
C1          C782   1.504       .  S
C1          C194   1.478       .  S
C2          C781   1.504       .  S
C2            H9   1.089       .  S
C2            C3   1.380       .  D
C3          C784   1.598   1_455  S
C3           C20   1.555       .  S
C4            C8   1.606       .  S
C4          C783   1.598       .  S
C4          C786   1.552       .  S
C4           H10   1.110       .  S
C5           H11   1.087       .  S
C5          C786   1.360       .  D
C6          C784   1.552   1_455  S
C6          C785   1.360       .  D
C6          C193   1.465       .  S
C7           H12   1.083       .  S
C7            C8   1.384       .  D
C8           C63   1.549       .  S
C13          C14   1.524       .  S
C13          C19   1.508       .  S
C13          C17   1.507       .  S
C13         C190   1.478       .  S
C14          H21   1.086       .  S
C14          C15   1.377       .  D
C15          C16   1.561       .  S
C15          C32   1.543       .  S
C16          C20   1.599       .  S
C16          C18   1.581       .  S
C16          H22   1.110       .  S
C17          H23   1.088       .  S
C17          C18   1.363       .  D
C18         C189   1.451       .  S
C19          H24   1.088       .  S
C19          C20   1.387       .  D
C25          C26   1.500       .  S
C25          C31   1.487       .  S
C25          C29   1.510       .  S
C25         C186   1.457       .  S
C26         H423   1.085   1_545  S
C26          C27   1.372   1_545  D
C27          C28   1.585   1_565  S
C27         C434   1.543       .  S
C28          C32   1.606       .  S
C28          C30   1.580       .  S
C28          H34   1.110       .  S
C29          H35   1.088       .  S
C29          C30   1.359       .  D
C30         C184   1.460       .  S
C31          H36   1.083       .  S
C31          C32   1.378       .  D
H33         C416   1.085       .  S
C37          C38   1.502       .  S
C37         C823   1.495       .  S
C37         C821   1.500       .  S
C37         C182   1.478       .  S
C38          H45   1.079       .  S
C38          C39   1.383       .  D
C39         C820   1.581       .  S
C39          C56   1.544       .  S
C40          C44   1.582   1_655  S
C40         C819   1.581       .  S
C40         C822   1.593       .  S
C40          H46   1.110       .  S
C41         C817   1.500   1_655  S
C41          H47   1.088       .  S
C41         C822   1.364       .  D
C42         C820   1.593       .  S
C42         C821   1.364       .  D
C42         C961   1.456       .  S
C43         C817   1.495       .  S
C43          H48   1.083       .  S
C43          C44   1.380       .  D
C44         C417   1.543       .  S
C49          C50   1.489       .  S
C49          C55   1.504       .  S
C49          C53   1.505       .  S
C49         C178   1.459       .  S
C50          H57   1.085       .  S
C50          C51   1.381       .  D
C51          C52   1.607       .  S
C51         C458   1.554       .  S
C52          C56   1.584       .  S
C52          C54   1.589       .  S
C52          H58   1.110       .  S
C53          H59   1.088       .  S
C53          C54   1.359       .  D
C54         C177   1.462       .  S
C55          H60   1.082       .  S
C55          C56   1.372       .  D
C61          C62   1.498       .  S
C61          C67   1.523       .  S
C61          C65   1.515       .  S
C61         C174   1.479       .  S
C62          H69   1.085       .  S
C62          C63   1.382       .  D
C63          C64   1.606       .  S
C64          C68   1.574       .  S
C64          C66   1.571       .  S
C64          H70   1.110       .  S
C65          H71   1.088       .  S
C65          C66   1.363       .  D
C66         C173   1.450       .  S
C67         H462   1.087   1_545  S
C67          C68   1.378       .  D
C68         C441   1.554   1_545  S
H72         C457   1.087       .  S
O73          C81   1.246       .  A
O73         Co93   1.978       .  S
O74          C82   1.279       .  A
O74        Co484   2.014   1_545  S
O75          C83   1.269       .  A
O75         Co95   2.012   1_554  S
O76          C84   1.237       .  A
O76         Co96   1.945       .  S
O77          C83   1.278       .  A
O77        Co484   2.016   1_545  S
O78          C84   1.249       .  A
O78         Co93   1.982       .  S
O79          C82   1.267       .  A
O79        Co291   1.998   1_554  S
O80         C276   1.245   1_554  A
O80         Co95   1.962   1_554  S
C81         O275   1.245       .  A
C81         C166   1.419       .  S
C82         C172   1.448       .  S
C83         C185   1.461       .  S
C84         C171   1.411       .  S
O85          C98   1.289       .  A
O85         Co93   2.059       .  S
O86          C99   1.264       .  A
O86         Co94   2.003       .  S
O87         C100   1.269       .  A
O87        Co290   1.896       .  S
O88         C101   1.255   1_556  A
O88        Co681   1.966       .  S
O89         C101   1.264       .  A
O89         Co94   2.001       .  S
O90         C100   1.289       .  A
O90         Co93   2.049       .  S
O91          C98   1.270       .  A
O91         Co96   1.920       .  S
O92          C99   1.256   1_556  A
O92        Co485   1.987       .  S
Co93        O292   2.264       .  S
Co94        O464   2.014       .  S
Co94        O467   2.016       .  S
Co94        O487   2.091       .  S
Co95        O282   1.896       .  S
Co95        O482   1.987   1_545  S
Co95         O97   1.915   1_556  S
Co96        O274   1.999       .  S
Co96        O673   1.966   1_545  S
Co96        O292   1.919       .  S
O97        Co288   2.264   1_554  S
O97        Co484   2.091   1_545  S
O97        Co291   1.919   1_554  S
C98         C175   1.443       .  S
C99         C169   1.429   1_554  S
C100        C187   1.421       .  S
C101        C164   1.414       .  S
O102        C110   1.248       .  A
O102       Co122   1.978       .  S
O103        C111   1.278       .  A
O103       Co123   2.011       .  S
O104        C112   1.269       .  A
O104       Co124   2.012       .  S
O105        C308   1.242   1_554  A
O105       Co125   1.956   1_554  S
O106        C112   1.277       .  A
O106       Co123   2.018       .  S
O107        C113   1.251       .  A
O107       Co122   1.996       .  S
O108        C891   1.272       .  A
O108       Co125   2.018   1_554  S
O109        C305   1.238   1_554  A
O109       Co904   1.946       .  S
C110        O304   1.238       .  A
C110        C170   1.411       .  S
C111        O888   1.272       .  A
C111        C180   1.459       .  S
C112        C192   1.461       .  S
C113        O300   1.242       .  A
C113        C163   1.428       .  S
O114        C127   1.292       .  A
O114       Co122   2.066       .  S
O115        C128   1.265       .  A
O115       Co123   2.006       .  S
O116        C909   1.268       .  A
O116       Co319   1.909       .  S
O117        C130   1.258   1_556  A
O117       Co905   1.982       .  S
O118        C130   1.265       .  A
O118       Co123   2.003       .  S
O119        C129   1.296       .  A
O119       Co122   2.077       .  S
O120        C127   1.272       .  A
O120       Co320   1.912       .  S
O121        C128   1.253   1_556  A
O121       Co124   1.963   1_556  S
Co122      O1101   2.264       .  S
Co123       O126   2.091   1_455  S
Co124       O889   1.946   1_455  S
Co124       O311   1.909   1_554  S
Co124       O126   1.917   1_455  S
Co125       O897   1.982       .  S
Co125       O315   1.911       .  S
Co125       O906   1.927   1_556  S
O126      Co1097   2.264   1_554  S
O126       Co905   1.927   1_654  S
C127        C183   1.443       .  S
C128        C161   1.414       .  S
C129        O896   1.268       .  A
C129        C195   1.442       .  S
C130        C168   1.428   1_554  S
O131        C139   1.248       .  A
O131       Co151   1.981       .  S
O132        C140   1.281       .  A
O132       Co152   2.025       .  S
O133        C141   1.267       .  A
O133       Co153   1.996   1_554  S
O134        C337   1.242   1_554  A
O134       Co154   1.959   1_554  S
O135        C141   1.280       .  A
O135       Co152   2.018       .  S
O136        C142   1.245       .  A
O136       Co151   1.975       .  S
O137        C140   1.268       .  A
O137       Co154   2.007   1_554  S
O138        C334   1.241   1_554  A
O138       Co153   1.952   1_554  S
C139        O333   1.241       .  A
C139        C160   1.416       .  S
C140        C176   1.464       .  S
C141        C188   1.451       .  S
C142        O329   1.242       .  A
C142        C165   1.416       .  S
O143        C156   1.288       .  A
O143       Co151   2.041       .  S
O144        C157   1.264       .  A
O144       Co152   1.996       .  S
O145        C158   1.270       .  A
O145       Co348   1.922       .  S
O146        C159   1.255   1_556  A
O146       Co154   1.981       .  S
O147        C159   1.265       .  A
O147       Co152   2.009       .  S
O148        C158   1.289       .  A
O148       Co151   2.054       .  S
O149        C156   1.271       .  A
O149       Co349   1.906       .  S
O150        C157   1.259   1_556  A
O150       Co153   1.975       .  S
Co151       O350   2.270       .  S
Co152       O155   2.088       .  S
Co153       O340   1.922       .  S
Co153       O155   1.918   1_556  S
Co154       O344   1.906       .  S
Co154       O155   1.906   1_556  S
O155       Co346   2.270   1_554  S
C156        C179   1.423       .  S
C157        C167   1.418   1_554  S
C158        C191   1.443       .  S
C159        C162   1.428   1_554  S
C160        C356   1.194       .  T
C161        C355   1.194   1_554  T
C162        C358   1.202       .  T
C163        C357   1.202       .  T
C164        C360   1.194   1_554  T
C165        C359   1.194       .  T
C166        C362   1.197       .  T
C167        C361   1.197       .  T
C168        C169   1.202       .  T
C170        C171   1.192       .  T
C172        C173   1.214       .  T
C174        C175   1.211       .  T
C176        C177   1.223       .  T
C178        C179   1.200       .  T
C180        C181   1.220   1_455  T
C181        C822   1.456       .  S
C182        C183   1.211       .  T
C184        C185   1.221       .  T
C186        C187   1.198       .  T
C188        C189   1.215       .  T
C190        C191   1.211       .  T
C192        C193   1.221       .  T
C194        C195   1.211       .  T
C196        C977   1.504       .  S
C196        C202   1.481       .  S
C196        C200   1.536       .  S
C196        C389   1.479       .  S
C197        C976   1.504       .  S
C197        H204   1.089       .  S
C197        C198   1.380       .  D
C198        C979   1.598   1_455  S
C198        C215   1.555       .  S
C199        C978   1.598       .  S
C199        C203   1.606       .  S
C199        C981   1.552       .  S
C199        H205   1.110       .  S
C200        H206   1.087       .  S
C200        C981   1.360       .  D
C201        C979   1.552   1_455  S
C201        C980   1.360       .  D
C201        C388   1.465       .  S
C202        H207   1.082       .  S
C202        C203   1.384       .  D
C203        C258   1.549       .  S
C208        C209   1.524       .  S
C208        C214   1.508       .  S
C208        C212   1.506       .  S
C208        C385   1.478       .  S
C209        H216   1.086       .  S
C209        C210   1.377       .  D
C210        C211   1.561       .  S
C210        C227   1.543       .  S
C211        C215   1.599       .  S
C211        C213   1.582       .  S
C211        H217   1.110       .  S
C212        H218   1.088       .  S
C212        C213   1.362       .  D
C213        C384   1.451       .  S
C214        H219   1.088       .  S
C214        C215   1.387       .  D
C220        C221   1.500       .  S
C220        C226   1.487       .  S
C220        C224   1.510       .  S
C220        C381   1.456       .  S
C221        H618   1.084   1_545  S
C221        C222   1.372   1_545  D
C222        C223   1.585   1_565  S
C222        C629   1.543       .  S
C223        C227   1.606       .  S
C223        C225   1.580       .  S
C223        H229   1.110       .  S
C224        H230   1.088       .  S
C224        C225   1.359       .  D
C225        C379   1.460       .  S
C226        H231   1.083       .  S
C226        C227   1.378       .  D
H228        C611   1.084       .  S
C232        C233   1.502       .  S
C232       C1018   1.495       .  S
C232       C1016   1.500       .  S
C232        C377   1.478       .  S
C233        H240   1.079       .  S
C233        C234   1.383       .  D
C234       C1015   1.581       .  S
C234        C251   1.544       .  S
C235       C1014   1.581       .  S
C235        C239   1.582   1_655  S
C235       C1017   1.593       .  S
C235        H241   1.110       .  S
C236       C1012   1.500   1_655  S
C236        H242   1.088       .  S
C236       C1017   1.364       .  D
C237       C1015   1.593       .  S
C237       C1016   1.364       .  D
C237       C1156   1.456       .  S
C238       C1012   1.495       .  S
C238        H243   1.083       .  S
C238        C239   1.380       .  D
C239        C612   1.543       .  S
C244        C245   1.489       .  S
C244        C250   1.504       .  S
C244        C248   1.505       .  S
C244        C373   1.459       .  S
C245        H252   1.085       .  S
C245        C246   1.381       .  D
C246        C247   1.607       .  S
C246        C653   1.554       .  S
C247        C251   1.584       .  S
C247        C249   1.589       .  S
C247        H253   1.110       .  S
C248        H254   1.088       .  S
C248        C249   1.359       .  D
C249        C372   1.462       .  S
C250        H255   1.082       .  S
C250        C251   1.372       .  D
C256        C257   1.498       .  S
C256        C262   1.523       .  S
C256        C260   1.515       .  S
C256        C369   1.479       .  S
C257        H264   1.085       .  S
C257        C258   1.382       .  D
C258        C259   1.606       .  S
C259        C263   1.574       .  S
C259        C261   1.571       .  S
C259        H265   1.110       .  S
C260        H266   1.088       .  S
C260        C261   1.363       .  D
C261        C368   1.450       .  S
C262        H657   1.087   1_545  S
C262        C263   1.378       .  D
C263        C636   1.554   1_545  S
H267        C652   1.087       .  S
O268        C276   1.246       .  A
O268       Co288   1.977       .  S
O269        C277   1.279       .  A
O269       Co679   2.014   1_545  S
O270        C278   1.269       .  A
O270       Co290   2.012       .  S
O271        C279   1.237   1_554  A
O271       Co291   1.945   1_554  S
O272        C278   1.278       .  A
O272       Co679   2.016   1_545  S
O273        C279   1.249       .  A
O273       Co288   1.982       .  S
O274        C277   1.267       .  A
O275       Co290   1.961       .  S
C276        C361   1.419       .  S
C277        C367   1.448       .  S
C278        C380   1.461       .  S
C279        C366   1.411   1_556  S
O280        C293   1.289       .  A
O280       Co288   2.059       .  S
O281        C294   1.264       .  A
O281       Co289   2.003       .  S
O282        C295   1.268       .  A
O283        C296   1.255       .  A
O283       Co486   1.966       .  S
O284        C296   1.264       .  A
O284       Co289   2.001       .  S
O285        C295   1.289       .  A
O285       Co288   2.049       .  S
O286        C293   1.270       .  A
O286       Co291   1.920       .  S
O287        C294   1.256       .  A
O287       Co680   1.987       .  S
Co289       O659   2.014       .  S
Co289       O662   2.016       .  S
Co289       O682   2.091       .  S
Co290       O677   1.987   1_545  S
Co290       O292   1.916       .  S
Co291       O478   1.966   1_545  S
O292       Co679   2.091   1_545  S
C293        C370   1.443       .  S
C294        C364   1.429       .  S
C295        C382   1.420       .  S
C296        C359   1.414       .  S
O297        C305   1.248       .  A
O297       Co317   1.978       .  S
O298        C306   1.278       .  A
O298       Co318   2.011       .  S
O299        C307   1.269       .  A
O299       Co319   2.012       .  S
O300       Co320   1.956       .  S
O301        C307   1.277       .  A
O301       Co318   2.018       .  S
O302        C308   1.251       .  A
O302       Co317   1.996       .  S
O303       C1086   1.272       .  A
O303       Co320   2.018       .  S
O304      Co1099   1.946       .  S
C305        C365   1.411   1_556  S
C306       O1083   1.272       .  A
C306        C375   1.459       .  S
C307        C387   1.461       .  S
C308        C358   1.429       .  S
O309        C322   1.292       .  A
O309       Co317   2.066       .  S
O310        C323   1.265       .  A
O310       Co318   2.006       .  S
O311       C1104   1.268       .  A
O312        C325   1.257       .  A
O312      Co1100   1.982       .  S
O313        C325   1.265       .  A
O313       Co318   2.003       .  S
O314        C324   1.296       .  A
O314       Co317   2.077       .  S
O315        C322   1.272       .  A
O316        C323   1.253       .  A
O316       Co319   1.963       .  S
Co317       O906   2.264   1_556  S
Co318       O321   2.091   1_455  S
Co319      O1084   1.946   1_455  S
Co319       O321   1.917   1_455  S
Co320      O1092   1.982       .  S
Co320      O1101   1.927       .  S
O321       Co902   2.264       .  S
O321      Co1100   1.927   1_655  S
C322        C378   1.443       .  S
C323        C356   1.415       .  S
C324       O1091   1.268       .  A
C324        C390   1.443       .  S
C325        C363   1.428       .  S
O326        C334   1.248       .  A
O326       Co346   1.981       .  S
O327        C335   1.281       .  A
O327       Co347   2.025       .  S
O328        C336   1.267       .  A
O328       Co348   1.996       .  S
O329       Co349   1.959       .  S
O330        C336   1.280       .  A
O330       Co347   2.018       .  S
O331        C337   1.245       .  A
O331       Co346   1.975       .  S
O332        C335   1.268       .  A
O332       Co349   2.007       .  S
O333       Co348   1.952       .  S
C334        C355   1.415       .  S
C335        C371   1.464       .  S
C336        C383   1.451       .  S
C337        C360   1.416       .  S
O338        C351   1.288       .  A
O338       Co346   2.041       .  S
O339        C352   1.264       .  A
O339       Co347   1.996       .  S
O340        C353   1.270       .  A
O341        C354   1.255       .  A
O341       Co349   1.981       .  S
O342        C354   1.265       .  A
O342       Co347   2.009       .  S
O343        C353   1.289       .  A
O343       Co346   2.054       .  S
O344        C351   1.271       .  A
O345        C352   1.259       .  A
O345       Co348   1.975       .  S
Co347       O350   2.088       .  S
Co348       O350   1.918       .  S
Co349       O350   1.906       .  S
C351        C374   1.423       .  S
C352        C362   1.418       .  S
C353        C386   1.443       .  S
C354        C357   1.428       .  S
C363        C364   1.202       .  T
C365        C366   1.192       .  T
C367        C368   1.214       .  T
C369        C370   1.211       .  T
C371        C372   1.223       .  T
C373        C374   1.199       .  T
C375        C376   1.220   1_455  T
C376       C1017   1.456       .  S
C377        C378   1.211       .  T
C379        C380   1.221       .  T
C381        C382   1.198       .  T
C383        C384   1.215       .  T
C385        C386   1.211       .  T
C387        C388   1.221       .  T
C389        C390   1.211       .  T
C391       C1172   1.504       .  S
C391        C397   1.481       .  S
C391        C395   1.536       .  S
C391        C584   1.478       .  S
C392       C1171   1.504       .  S
C392        H399   1.089       .  S
C392        C393   1.380       .  D
C393       C1174   1.598   1_455  S
C393        C410   1.555       .  S
C394       C1173   1.598       .  S
C394        C398   1.606       .  S
C394       C1176   1.552       .  S
C394        H400   1.110       .  S
C395        H401   1.087       .  S
C395       C1176   1.360       .  D
C396       C1174   1.552   1_455  S
C396       C1175   1.360       .  D
C396        C583   1.465       .  S
C397        H402   1.083       .  S
C397        C398   1.384       .  D
C398        C453   1.549       .  S
C403        C404   1.524       .  S
C403        C409   1.508       .  S
C403        C407   1.507       .  S
C403        C580   1.478       .  S
C404        H411   1.086       .  S
C404        C405   1.377       .  D
C405        C406   1.561       .  S
C405        C422   1.543       .  S
C406        C410   1.599       .  S
C406        C408   1.581       .  S
C406        H412   1.110       .  S
C407        H413   1.088       .  S
C407        C408   1.363       .  D
C408        C579   1.451       .  S
C409        H414   1.088       .  S
C409        C410   1.387       .  D
C415        C416   1.500       .  S
C415        C421   1.487       .  S
C415        C419   1.510       .  S
C415        C576   1.457       .  S
C416        C417   1.372       .  D
C417        C418   1.585       .  S
C418        C422   1.606       .  S
C418        C420   1.580       .  S
C418        H424   1.110       .  S
C419        H425   1.088       .  S
C419        C420   1.359       .  D
C420        C574   1.460       .  S
C421        H426   1.083       .  S
C421        C422   1.378       .  D
C427        C428   1.502       .  S
C427       C1213   1.495       .  S
C427       C1211   1.500       .  S
C427        C572   1.478       .  S
C428        H435   1.079       .  S
C428        C429   1.383       .  D
C429       C1210   1.581       .  S
C429        C446   1.544       .  S
C430       C1209   1.581       .  S
C430        C434   1.582   1_655  S
C430       C1212   1.593       .  S
C430        H436   1.110       .  S
C431       C1207   1.500   1_655  S
C431        H437   1.088       .  S
C431       C1212   1.364       .  D
C432       C1210   1.593       .  S
C432       C1211   1.364       .  D
C432       C1351   1.456       .  S
C433       C1207   1.495       .  S
C433        H438   1.083       .  S
C433        C434   1.380       .  D
C439        C440   1.489       .  S
C439        C445   1.504       .  S
C439        C443   1.505       .  S
C439        C568   1.459       .  S
C440        H447   1.085       .  S
C440        C441   1.381       .  D
C441        C442   1.607       .  S
C442        C446   1.584       .  S
C442        C444   1.589       .  S
C442        H448   1.110       .  S
C443        H449   1.088       .  S
C443        C444   1.359       .  D
C444        C567   1.462       .  S
C445        H450   1.082       .  S
C445        C446   1.372       .  D
C451        C452   1.498       .  S
C451        C457   1.523       .  S
C451        C455   1.515       .  S
C451        C564   1.479       .  S
C452        H459   1.085       .  S
C452        C453   1.382       .  D
C453        C454   1.606       .  S
C454        C458   1.574       .  S
C454        C456   1.571       .  S
C454        H460   1.110       .  S
C455        H461   1.088       .  S
C455        C456   1.363       .  D
C456        C563   1.450       .  S
C457        C458   1.378       .  D
O463        C471   1.246       .  A
O463       Co483   1.978       .  S
O464        C472   1.279       .  A
O465        C473   1.269       .  A
O465       Co485   2.012   1_554  S
O466        C474   1.237       .  A
O466       Co486   1.945       .  S
O467        C473   1.278       .  A
O468        C474   1.249       .  A
O468       Co483   1.982       .  S
O469        C472   1.267       .  A
O469       Co681   1.998   1_554  S
O470        C666   1.245   1_554  A
O470       Co485   1.962   1_554  S
C471        O665   1.245       .  A
C471        C556   1.419       .  S
C472        C562   1.448       .  S
C473        C575   1.461       .  S
C474        C561   1.411       .  S
O475        C488   1.289       .  A
O475       Co483   2.059       .  S
O476        C489   1.264       .  A
O476       Co484   2.003       .  S
O477        C490   1.269       .  A
O477       Co680   1.896       .  S
O478        C491   1.255   1_556  A
O479        C491   1.264       .  A
O479       Co484   2.001       .  S
O480        C490   1.289       .  A
O480       Co483   2.049       .  S
O481        C488   1.270       .  A
O481       Co486   1.920       .  S
O482        C489   1.256   1_556  A
Co483       O682   2.264       .  S
Co485       O672   1.896       .  S
Co485       O487   1.915   1_556  S
Co486       O664   1.999       .  S
Co486       O682   1.919       .  S
O487       Co678   2.264   1_554  S
O487       Co681   1.919   1_554  S
C488        C565   1.443       .  S
C489        C559   1.429   1_554  S
C490        C577   1.421       .  S
C491        C554   1.414       .  S
O492        C500   1.248       .  A
O492       Co512   1.978       .  S
O493        C501   1.278       .  A
O493       Co513   2.011       .  S
O494        C502   1.269       .  A
O494       Co514   2.012       .  S
O495        C698   1.242   1_554  A
O495       Co515   1.956   1_554  S
O496        C502   1.277       .  A
O496       Co513   2.018       .  S
O497        C503   1.251       .  A
O497       Co512   1.996       .  S
O498       C1281   1.272       .  A
O498       Co515   2.018   1_554  S
O499        C695   1.238   1_554  A
O499      Co1294   1.946       .  S
C500        O694   1.238       .  A
C500        C560   1.411       .  S
C501       O1278   1.272       .  A
C501        C570   1.459       .  S
C502        C582   1.461       .  S
C503        O690   1.242       .  A
C503        C553   1.428       .  S
O504        C517   1.292       .  A
O504       Co512   2.066       .  S
O505        C518   1.265       .  A
O505       Co513   2.006       .  S
O506       C1299   1.268       .  A
O506       Co709   1.909       .  S
O507        C520   1.258   1_556  A
O507      Co1295   1.982       .  S
O508        C520   1.265       .  A
O508       Co513   2.003       .  S
O509        C519   1.296       .  A
O509       Co512   2.077       .  S
O510        C517   1.272       .  A
O510       Co710   1.912       .  S
O511        C518   1.253   1_556  A
O511       Co514   1.963   1_556  S
Co512      O1491   2.264       .  S
Co513       O516   2.091   1_455  S
Co514      O1279   1.946   1_455  S
Co514       O701   1.909   1_554  S
Co514       O516   1.917   1_455  S
Co515      O1287   1.982       .  S
Co515       O705   1.911       .  S
Co515      O1296   1.927   1_556  S
O516      Co1487   2.264   1_554  S
O516      Co1295   1.927   1_654  S
C517        C573   1.443       .  S
C518        C551   1.414       .  S
C519       O1286   1.268       .  A
C519        C585   1.442       .  S
C520        C558   1.428   1_554  S
O521        C529   1.248       .  A
O521       Co541   1.981       .  S
O522        C530   1.281       .  A
O522       Co542   2.025       .  S
O523        C531   1.267       .  A
O523       Co543   1.996   1_554  S
O524        C727   1.242   1_554  A
O524       Co544   1.959   1_554  S
O525        C531   1.280       .  A
O525       Co542   2.018       .  S
O526        C532   1.245       .  A
O526       Co541   1.975       .  S
O527        C530   1.268       .  A
O527       Co544   2.007   1_554  S
O528        C724   1.241   1_554  A
O528       Co543   1.952   1_554  S
C529        O723   1.241       .  A
C529        C550   1.416       .  S
C530        C566   1.464       .  S
C531        C578   1.451       .  S
C532        O719   1.242       .  A
C532        C555   1.416       .  S
O533        C546   1.288       .  A
O533       Co541   2.041       .  S
O534        C547   1.264       .  A
O534       Co542   1.996       .  S
O535        C548   1.270       .  A
O535       Co738   1.922       .  S
O536        C549   1.255   1_556  A
O536       Co544   1.981       .  S
O537        C549   1.265       .  A
O537       Co542   2.009       .  S
O538        C548   1.289       .  A
O538       Co541   2.054       .  S
O539        C546   1.271       .  A
O539       Co739   1.906       .  S
O540        C547   1.259   1_556  A
O540       Co543   1.975       .  S
Co541       O740   2.270       .  S
Co542       O545   2.088       .  S
Co543       O730   1.922       .  S
Co543       O545   1.918   1_556  S
Co544       O734   1.906       .  S
Co544       O545   1.906   1_556  S
O545       Co736   2.270   1_554  S
C546        C569   1.423       .  S
C547        C557   1.418   1_554  S
C548        C581   1.443       .  S
C549        C552   1.428   1_554  S
C550        C746   1.194       .  T
C551        C745   1.194   1_554  T
C552        C748   1.202       .  T
C553        C747   1.202       .  T
C554        C750   1.194   1_554  T
C555        C749   1.194       .  T
C556        C752   1.197       .  T
C557        C751   1.197       .  T
C558        C559   1.202       .  T
C560        C561   1.192       .  T
C562        C563   1.214       .  T
C564        C565   1.211       .  T
C566        C567   1.223       .  T
C568        C569   1.200       .  T
C570        C571   1.220   1_455  T
C571       C1212   1.456       .  S
C572        C573   1.211       .  T
C574        C575   1.221       .  T
C576        C577   1.198       .  T
C578        C579   1.215       .  T
C580        C581   1.211       .  T
C582        C583   1.221       .  T
C584        C585   1.211       .  T
C586       C1367   1.504       .  S
C586        C592   1.481       .  S
C586        C590   1.536       .  S
C586        C779   1.479       .  S
C587       C1366   1.504       .  S
C587        H594   1.089       .  S
C587        C588   1.380       .  D
C588       C1369   1.598   1_455  S
C588        C605   1.555       .  S
C589       C1368   1.598       .  S
C589        C593   1.606       .  S
C589       C1371   1.552       .  S
C589        H595   1.110       .  S
C590        H596   1.087       .  S
C590       C1371   1.360       .  D
C591       C1369   1.552   1_455  S
C591       C1370   1.360       .  D
C591        C778   1.465       .  S
C592        H597   1.082       .  S
C592        C593   1.384       .  D
C593        C648   1.549       .  S
C598        C599   1.524       .  S
C598        C604   1.508       .  S
C598        C602   1.506       .  S
C598        C775   1.478       .  S
C599        H606   1.086       .  S
C599        C600   1.377       .  D
C600        C601   1.561       .  S
C600        C617   1.543       .  S
C601        C605   1.599       .  S
C601        C603   1.582       .  S
C601        H607   1.110       .  S
C602        H608   1.088       .  S
C602        C603   1.362       .  D
C603        C774   1.451       .  S
C604        H609   1.088       .  S
C604        C605   1.387       .  D
C610        C611   1.500       .  S
C610        C616   1.487       .  S
C610        C614   1.510       .  S
C610        C771   1.456       .  S
C611        C612   1.372       .  D
C612        C613   1.585       .  S
C613        C617   1.606       .  S
C613        C615   1.580       .  S
C613        H619   1.110       .  S
C614        H620   1.088       .  S
C614        C615   1.359       .  D
C615        C769   1.460       .  S
C616        H621   1.083       .  S
C616        C617   1.378       .  D
C622        C623   1.502       .  S
C622       C1408   1.495       .  S
C622       C1406   1.500       .  S
C622        C767   1.478       .  S
C623        H630   1.079       .  S
C623        C624   1.383       .  D
C624       C1405   1.581       .  S
C624        C641   1.544       .  S
C625       C1404   1.581       .  S
C625        C629   1.582   1_655  S
C625       C1407   1.593       .  S
C625        H631   1.110       .  S
C626       C1402   1.500   1_655  S
C626        H632   1.088       .  S
C626       C1407   1.364       .  D
C627       C1405   1.593       .  S
C627       C1406   1.364       .  D
C627       C1546   1.456       .  S
C628       C1402   1.495       .  S
C628        H633   1.083       .  S
C628        C629   1.380       .  D
C634        C635   1.489       .  S
C634        C640   1.504       .  S
C634        C638   1.505       .  S
C634        C763   1.459       .  S
C635        H642   1.085       .  S
C635        C636   1.381       .  D
C636        C637   1.607       .  S
C637        C641   1.584       .  S
C637        C639   1.589       .  S
C637        H643   1.110       .  S
C638        H644   1.088       .  S
C638        C639   1.359       .  D
C639        C762   1.462       .  S
C640        H645   1.082       .  S
C640        C641   1.372       .  D
C646        C647   1.498       .  S
C646        C652   1.523       .  S
C646        C650   1.515       .  S
C646        C759   1.479       .  S
C647        H654   1.085       .  S
C647        C648   1.382       .  D
C648        C649   1.606       .  S
C649        C653   1.574       .  S
C649        C651   1.571       .  S
C649        H655   1.110       .  S
C650        H656   1.088       .  S
C650        C651   1.363       .  D
C651        C758   1.450       .  S
C652        C653   1.378       .  D
O658        C666   1.246       .  A
O658       Co678   1.977       .  S
O659        C667   1.279       .  A
O660        C668   1.269       .  A
O660       Co680   2.012       .  S
O661        C669   1.237   1_554  A
O661       Co681   1.945   1_554  S
O662        C668   1.278       .  A
O663        C669   1.249       .  A
O663       Co678   1.982       .  S
O664        C667   1.267       .  A
O665       Co680   1.961       .  S
C666        C751   1.419       .  S
C667        C757   1.448       .  S
C668        C770   1.461       .  S
C669        C756   1.411   1_556  S
O670        C683   1.289       .  A
O670       Co678   2.059       .  S
O671        C684   1.264       .  A
O671       Co679   2.003       .  S
O672        C685   1.268       .  A
O673        C686   1.255       .  A
O674        C686   1.264       .  A
O674       Co679   2.001       .  S
O675        C685   1.289       .  A
O675       Co678   2.049       .  S
O676        C683   1.270       .  A
O676       Co681   1.920       .  S
O677        C684   1.256       .  A
Co680       O682   1.916       .  S
C683        C760   1.443       .  S
C684        C754   1.429       .  S
C685        C772   1.420       .  S
C686        C749   1.414       .  S
O687        C695   1.248       .  A
O687       Co707   1.978       .  S
O688        C696   1.278       .  A
O688       Co708   2.011       .  S
O689        C697   1.269       .  A
O689       Co709   2.012       .  S
O690       Co710   1.956       .  S
O691        C697   1.277       .  A
O691       Co708   2.018       .  S
O692        C698   1.251       .  A
O692       Co707   1.996       .  S
O693       C1476   1.272       .  A
O693       Co710   2.018       .  S
O694      Co1489   1.946       .  S
C695        C755   1.411   1_556  S
C696       O1473   1.272       .  A
C696        C765   1.459       .  S
C697        C777   1.461       .  S
C698        C748   1.429       .  S
O699        C712   1.292       .  A
O699       Co707   2.066       .  S
O700        C713   1.265       .  A
O700       Co708   2.006       .  S
O701       C1494   1.268       .  A
O702        C715   1.257       .  A
O702      Co1490   1.982       .  S
O703        C715   1.265       .  A
O703       Co708   2.003       .  S
O704        C714   1.296       .  A
O704       Co707   2.077       .  S
O705        C712   1.272       .  A
O706        C713   1.253       .  A
O706       Co709   1.963       .  S
Co707      O1296   2.264   1_556  S
Co708       O711   2.091   1_455  S
Co709      O1474   1.946   1_455  S
Co709       O711   1.917   1_455  S
Co710      O1482   1.982       .  S
Co710      O1491   1.927       .  S
O711      Co1292   2.264       .  S
O711      Co1490   1.927   1_655  S
C712        C768   1.443       .  S
C713        C746   1.415       .  S
C714       O1481   1.268       .  A
C714        C780   1.443       .  S
C715        C753   1.428       .  S
O716        C724   1.248       .  A
O716       Co736   1.981       .  S
O717        C725   1.281       .  A
O717       Co737   2.025       .  S
O718        C726   1.267       .  A
O718       Co738   1.996       .  S
O719       Co739   1.959       .  S
O720        C726   1.280       .  A
O720       Co737   2.018       .  S
O721        C727   1.245       .  A
O721       Co736   1.975       .  S
O722        C725   1.268       .  A
O722       Co739   2.007       .  S
O723       Co738   1.952       .  S
C724        C745   1.415       .  S
C725        C761   1.464       .  S
C726        C773   1.451       .  S
C727        C750   1.416       .  S
O728        C741   1.288       .  A
O728       Co736   2.041       .  S
O729        C742   1.264       .  A
O729       Co737   1.996       .  S
O730        C743   1.270       .  A
O731        C744   1.255       .  A
O731       Co739   1.981       .  S
O732        C744   1.265       .  A
O732       Co737   2.009       .  S
O733        C743   1.289       .  A
O733       Co736   2.054       .  S
O734        C741   1.271       .  A
O735        C742   1.259       .  A
O735       Co738   1.975       .  S
Co737       O740   2.088       .  S
Co738       O740   1.918       .  S
Co739       O740   1.906       .  S
C741        C764   1.423       .  S
C742        C752   1.418       .  S
C743        C776   1.443       .  S
C744        C747   1.428       .  S
C753        C754   1.202       .  T
C755        C756   1.192       .  T
C757        C758   1.214       .  T
C759        C760   1.211       .  T
C761        C762   1.223       .  T
C763        C764   1.199       .  T
C765        C766   1.220   1_455  T
C766       C1407   1.456       .  S
C767        C768   1.211       .  T
C769        C770   1.221       .  T
C771        C772   1.198       .  T
C773        C774   1.215       .  T
C775        C776   1.211       .  T
C777        C778   1.221       .  T
C779        C780   1.211       .  T
C781        C787   1.481   1_455  S
C781        C785   1.536       .  S
C781        C974   1.478       .  S
C782        H789   1.089       .  S
C782        C783   1.380       .  D
C783        C800   1.555       .  S
C784        C788   1.606       .  S
C784        H790   1.110       .  S
C785        H791   1.087       .  S
C786        C973   1.465       .  S
C787        H792   1.083       .  S
C787        C788   1.384       .  D
C788        C843   1.549       .  S
C793        C794   1.524       .  S
C793        C799   1.508       .  S
C793        C797   1.507       .  S
C793        C970   1.478       .  S
C794        H801   1.086       .  S
C794        C795   1.377       .  D
C795        C796   1.561       .  S
C795        C812   1.543       .  S
C796        C800   1.599       .  S
C796        C798   1.581       .  S
C796        H802   1.110       .  S
C797        H803   1.088       .  S
C797        C798   1.363       .  D
C798        C969   1.451       .  S
C799        H804   1.088       .  S
C799        C800   1.387       .  D
C805        C806   1.500       .  S
C805        C811   1.487       .  S
C805        C809   1.510       .  S
C805        C966   1.457       .  S
C806       H1203   1.085   1_545  S
C806        C807   1.372   1_545  D
C807        C808   1.585   1_565  S
C807       C1214   1.543       .  S
C808        C812   1.606       .  S
C808        C810   1.580       .  S
C808        H814   1.110       .  S
C809        H815   1.088       .  S
C809        C810   1.359       .  D
C810        C964   1.460       .  S
C811        H816   1.083       .  S
C811        C812   1.378       .  D
H813       C1196   1.085       .  S
C817        C818   1.502   1_455  S
C817        C962   1.478       .  S
C818        H825   1.079       .  S
C818        C819   1.383       .  D
C819        C836   1.544       .  S
C820        C824   1.582       .  S
C820        H826   1.110       .  S
C821        H827   1.088       .  S
C823        H828   1.083       .  S
C823        C824   1.380       .  D
C824       C1197   1.543       .  S
C829        C830   1.489       .  S
C829        C835   1.504       .  S
C829        C833   1.505       .  S
C829        C958   1.459       .  S
C830        H837   1.085       .  S
C830        C831   1.381       .  D
C831        C832   1.607       .  S
C831       C1238   1.554       .  S
C832        C836   1.584       .  S
C832        C834   1.589       .  S
C832        H838   1.110       .  S
C833        H839   1.088       .  S
C833        C834   1.359       .  D
C834        C957   1.462       .  S
C835        H840   1.082       .  S
C835        C836   1.372       .  D
C841        C842   1.498       .  S
C841        C847   1.523       .  S
C841        C845   1.515       .  S
C841        C954   1.479       .  S
C842        H849   1.085       .  S
C842        C843   1.382       .  D
C843        C844   1.606       .  S
C844        C848   1.574       .  S
C844        C846   1.571       .  S
C844        H850   1.110       .  S
C845        H851   1.088       .  S
C845        C846   1.363       .  D
C846        C953   1.450       .  S
C847       H1242   1.087   1_545  S
C847        C848   1.378       .  D
C848       C1221   1.554   1_545  S
H852       C1237   1.087       .  S
O853        C861   1.246       .  A
O853       Co873   1.978       .  S
O854        C862   1.279       .  A
O854      Co1264   2.014   1_545  S
O855        C863   1.269       .  A
O855       Co875   2.012   1_554  S
O856        C864   1.237       .  A
O856       Co876   1.945       .  S
O857        C863   1.278       .  A
O857      Co1264   2.016   1_545  S
O858        C864   1.249       .  A
O858       Co873   1.982       .  S
O859        C862   1.267       .  A
O859      Co1071   1.998   1_554  S
O860       C1056   1.245   1_554  A
O860       Co875   1.962   1_554  S
C861       O1055   1.245       .  A
C861        C946   1.419       .  S
C862        C952   1.448       .  S
C863        C965   1.461       .  S
C864        C951   1.411       .  S
O865        C878   1.289       .  A
O865       Co873   2.059       .  S
O866        C879   1.264       .  A
O866       Co874   2.003       .  S
O867        C880   1.269       .  A
O867      Co1070   1.896       .  S
O868        C881   1.255   1_556  A
O868      Co1461   1.966       .  S
O869        C881   1.264       .  A
O869       Co874   2.001       .  S
O870        C880   1.289       .  A
O870       Co873   2.049       .  S
O871        C878   1.270       .  A
O871       Co876   1.920       .  S
O872        C879   1.256   1_556  A
O872      Co1265   1.987       .  S
Co873      O1072   2.264       .  S
Co874      O1244   2.014       .  S
Co874      O1247   2.016       .  S
Co874      O1267   2.091       .  S
Co875      O1062   1.896       .  S
Co875      O1262   1.987   1_545  S
Co875       O877   1.915   1_556  S
Co876      O1054   1.999       .  S
Co876      O1453   1.966   1_545  S
Co876      O1072   1.919       .  S
O877      Co1068   2.264   1_554  S
O877      Co1264   2.091   1_545  S
O877      Co1071   1.919   1_554  S
C878        C955   1.443       .  S
C879        C949   1.429   1_554  S
C880        C967   1.421       .  S
C881        C944   1.414       .  S
O882        C890   1.248       .  A
O882       Co902   1.978       .  S
O883        C891   1.278       .  A
O883       Co903   2.011       .  S
O884        C892   1.269       .  A
O884       Co904   2.012       .  S
O885       C1088   1.242   1_554  A
O885       Co905   1.956   1_654  S
O886        C892   1.277       .  A
O886       Co903   2.018       .  S
O887        C893   1.251       .  A
O887       Co902   1.996       .  S
O888       Co905   2.018   1_554  S
O889       C1085   1.238   1_554  A
C890       O1084   1.238       .  A
C890        C950   1.411       .  S
C891        C960   1.459       .  S
C892        C972   1.461       .  S
C893       O1080   1.242       .  A
C893        C943   1.428       .  S
O894        C907   1.292       .  A
O894       Co902   2.066   1_455  S
O895        C908   1.265       .  A
O895       Co903   2.006       .  S
O896      Co1099   1.909       .  S
O897        C910   1.258   1_556  A
O898        C910   1.265       .  A
O898       Co903   2.003       .  S
O899        C909   1.296       .  A
O899       Co902   2.077   1_455  S
O900        C907   1.272   1_655  A
O900      Co1100   1.912   1_655  S
O901        C908   1.253   1_556  A
O901       Co904   1.963   1_556  S
Co903       O906   2.091       .  S
Co904      O1091   1.909   1_554  S
Co904       O906   1.917       .  S
Co905      O1095   1.911   1_455  S
C907        C963   1.443       .  S
C908        C941   1.414       .  S
C909        C975   1.442       .  S
C910        C948   1.428   1_554  S
O911        C919   1.248       .  A
O911       Co931   1.981       .  S
O912        C920   1.281       .  A
O912       Co932   2.025       .  S
O913        C921   1.267       .  A
O913       Co933   1.996   1_554  S
O914       C1117   1.242   1_554  A
O914       Co934   1.959   1_554  S
O915        C921   1.280       .  A
O915       Co932   2.018       .  S
O916        C922   1.245       .  A
O916       Co931   1.975       .  S
O917        C920   1.268       .  A
O917       Co934   2.007   1_554  S
O918       C1114   1.241   1_554  A
O918       Co933   1.952   1_554  S
C919       O1113   1.241       .  A
C919        C940   1.416       .  S
C920        C956   1.464       .  S
C921        C968   1.451       .  S
C922       O1109   1.242       .  A
C922        C945   1.416       .  S
O923        C936   1.288       .  A
O923       Co931   2.041       .  S
O924        C937   1.264       .  A
O924       Co932   1.996       .  S
O925        C938   1.270       .  A
O925      Co1128   1.922       .  S
O926        C939   1.255   1_556  A
O926       Co934   1.981       .  S
O927        C939   1.265       .  A
O927       Co932   2.009       .  S
O928        C938   1.289       .  A
O928       Co931   2.054       .  S
O929        C936   1.271       .  A
O929      Co1129   1.906       .  S
O930        C937   1.259   1_556  A
O930       Co933   1.975       .  S
Co931      O1130   2.270       .  S
Co932       O935   2.088       .  S
Co933      O1120   1.922       .  S
Co933       O935   1.918   1_556  S
Co934      O1124   1.906       .  S
Co934       O935   1.906   1_556  S
O935      Co1126   2.270   1_554  S
C936        C959   1.423       .  S
C937        C947   1.418   1_554  S
C938        C971   1.443       .  S
C939        C942   1.428   1_554  S
C940       C1136   1.194       .  T
C941       C1135   1.194   1_554  T
C942       C1138   1.202       .  T
C943       C1137   1.202       .  T
C944       C1140   1.194   1_554  T
C945       C1139   1.194       .  T
C946       C1142   1.197       .  T
C947       C1141   1.197       .  T
C948        C949   1.202       .  T
C950        C951   1.192       .  T
C952        C953   1.214       .  T
C954        C955   1.211       .  T
C956        C957   1.223       .  T
C958        C959   1.200       .  T
C960        C961   1.220       .  T
C962        C963   1.211       .  T
C964        C965   1.221       .  T
C966        C967   1.198       .  T
C968        C969   1.215       .  T
C970        C971   1.211       .  T
C972        C973   1.221       .  T
C974        C975   1.211       .  T
C976        C982   1.481   1_455  S
C976        C980   1.536       .  S
C976       C1169   1.479       .  S
C977        H984   1.089       .  S
C977        C978   1.380       .  D
C978        C995   1.555       .  S
C979        C983   1.606       .  S
C979        H985   1.110       .  S
C980        H986   1.087       .  S
C981       C1168   1.465       .  S
C982        H987   1.082       .  S
C982        C983   1.384       .  D
C983       C1038   1.549       .  S
C988        C989   1.524       .  S
C988        C994   1.508       .  S
C988        C992   1.506       .  S
C988       C1165   1.478       .  S
C989        H996   1.086       .  S
C989        C990   1.377       .  D
C990        C991   1.561       .  S
C990       C1007   1.543       .  S
C991        C995   1.599       .  S
C991        C993   1.582       .  S
C991        H997   1.110       .  S
C992        H998   1.088       .  S
C992        C993   1.362       .  D
C993       C1164   1.451       .  S
C994        H999   1.088       .  S
C994        C995   1.387       .  D
C1000      C1001   1.500       .  S
C1000      C1006   1.487       .  S
C1000      C1004   1.510       .  S
C1000      C1161   1.456       .  S
C1001      H1398   1.084   1_545  S
C1001      C1002   1.372   1_545  D
C1002      C1003   1.585   1_565  S
C1002      C1409   1.543       .  S
C1003      C1007   1.606       .  S
C1003      C1005   1.580       .  S
C1003      H1009   1.110       .  S
C1004      H1010   1.088       .  S
C1004      C1005   1.359       .  D
C1005      C1159   1.460       .  S
C1006      H1011   1.083       .  S
C1006      C1007   1.378       .  D
H1008      C1391   1.084       .  S
C1012      C1013   1.502   1_455  S
C1012      C1157   1.478       .  S
C1013      H1020   1.079       .  S
C1013      C1014   1.383       .  D
C1014      C1031   1.544       .  S
C1015      C1019   1.582       .  S
C1015      H1021   1.110       .  S
C1016      H1022   1.088       .  S
C1018      H1023   1.083       .  S
C1018      C1019   1.380       .  D
C1019      C1392   1.543       .  S
C1024      C1025   1.489       .  S
C1024      C1030   1.504       .  S
C1024      C1028   1.505       .  S
C1024      C1153   1.459       .  S
C1025      H1032   1.085       .  S
C1025      C1026   1.381       .  D
C1026      C1027   1.607       .  S
C1026      C1433   1.554       .  S
C1027      C1031   1.584       .  S
C1027      C1029   1.589       .  S
C1027      H1033   1.110       .  S
C1028      H1034   1.088       .  S
C1028      C1029   1.359       .  D
C1029      C1152   1.462       .  S
C1030      H1035   1.082       .  S
C1030      C1031   1.372       .  D
C1036      C1037   1.498       .  S
C1036      C1042   1.523       .  S
C1036      C1040   1.515       .  S
C1036      C1149   1.479       .  S
C1037      H1044   1.085       .  S
C1037      C1038   1.382       .  D
C1038      C1039   1.606       .  S
C1039      C1043   1.574       .  S
C1039      C1041   1.571       .  S
C1039      H1045   1.110       .  S
C1040      H1046   1.088       .  S
C1040      C1041   1.363       .  D
C1041      C1148   1.450       .  S
C1042      H1437   1.087   1_545  S
C1042      C1043   1.378       .  D
C1043      C1416   1.554   1_545  S
H1047      C1432   1.087       .  S
O1048      C1056   1.246       .  A
O1048     Co1068   1.977       .  S
O1049      C1057   1.279       .  A
O1049     Co1459   2.014   1_545  S
O1050      C1058   1.269       .  A
O1050     Co1070   2.012       .  S
O1051      C1059   1.237   1_554  A
O1051     Co1071   1.945   1_554  S
O1052      C1058   1.278       .  A
O1052     Co1459   2.016   1_545  S
O1053      C1059   1.249       .  A
O1053     Co1068   1.982       .  S
O1054      C1057   1.267       .  A
O1055     Co1070   1.961       .  S
C1056      C1141   1.419       .  S
C1057      C1147   1.448       .  S
C1058      C1160   1.461       .  S
C1059      C1146   1.411   1_556  S
O1060      C1073   1.289       .  A
O1060     Co1068   2.059       .  S
O1061      C1074   1.264       .  A
O1061     Co1069   2.003       .  S
O1062      C1075   1.268       .  A
O1063      C1076   1.255       .  A
O1063     Co1266   1.966       .  S
O1064      C1076   1.264       .  A
O1064     Co1069   2.001       .  S
O1065      C1075   1.289       .  A
O1065     Co1068   2.049       .  S
O1066      C1073   1.270       .  A
O1066     Co1071   1.920       .  S
O1067      C1074   1.256       .  A
O1067     Co1460   1.987       .  S
Co1069     O1439   2.014       .  S
Co1069     O1442   2.016       .  S
Co1069     O1462   2.091       .  S
Co1070     O1457   1.987   1_545  S
Co1070     O1072   1.916       .  S
Co1071     O1258   1.966   1_545  S
O1072     Co1459   2.091   1_545  S
C1073      C1150   1.443       .  S
C1074      C1144   1.429       .  S
C1075      C1162   1.420       .  S
C1076      C1139   1.414       .  S
O1077      C1085   1.248       .  A
O1077     Co1097   1.978       .  S
O1078      C1086   1.278       .  A
O1078     Co1098   2.011       .  S
O1079      C1087   1.269       .  A
O1079     Co1099   2.012       .  S
O1080     Co1100   1.956   1_655  S
O1081      C1087   1.277       .  A
O1081     Co1098   2.018       .  S
O1082      C1088   1.251       .  A
O1082     Co1097   1.996       .  S
O1083     Co1100   2.018       .  S
C1085      C1145   1.411   1_556  S
C1086      C1155   1.459       .  S
C1087      C1167   1.461       .  S
C1088      C1138   1.429       .  S
O1089      C1102   1.292       .  A
O1089     Co1097   2.066   1_455  S
O1090      C1103   1.265       .  A
O1090     Co1098   2.006       .  S
O1092      C1105   1.257       .  A
O1093      C1105   1.265       .  A
O1093     Co1098   2.003       .  S
O1094      C1104   1.296       .  A
O1094     Co1097   2.077   1_455  S
O1095      C1102   1.272   1_655  A
O1096      C1103   1.253       .  A
O1096     Co1099   1.963       .  S
Co1098     O1101   2.091       .  S
Co1099     O1101   1.917       .  S
C1102      C1158   1.443       .  S
C1103      C1136   1.415       .  S
C1104      C1170   1.443       .  S
C1105      C1143   1.428       .  S
O1106      C1114   1.248       .  A
O1106     Co1126   1.981       .  S
O1107      C1115   1.281       .  A
O1107     Co1127   2.025       .  S
O1108      C1116   1.267       .  A
O1108     Co1128   1.996       .  S
O1109     Co1129   1.959       .  S
O1110      C1116   1.280       .  A
O1110     Co1127   2.018       .  S
O1111      C1117   1.245       .  A
O1111     Co1126   1.975       .  S
O1112      C1115   1.268       .  A
O1112     Co1129   2.007       .  S
O1113     Co1128   1.952       .  S
C1114      C1135   1.415       .  S
C1115      C1151   1.464       .  S
C1116      C1163   1.451       .  S
C1117      C1140   1.416       .  S
O1118      C1131   1.288       .  A
O1118     Co1126   2.041       .  S
O1119      C1132   1.264       .  A
O1119     Co1127   1.996       .  S
O1120      C1133   1.270       .  A
O1121      C1134   1.255       .  A
O1121     Co1129   1.981       .  S
O1122      C1134   1.265       .  A
O1122     Co1127   2.009       .  S
O1123      C1133   1.289       .  A
O1123     Co1126   2.054       .  S
O1124      C1131   1.271       .  A
O1125      C1132   1.259       .  A
O1125     Co1128   1.975       .  S
Co1127     O1130   2.088       .  S
Co1128     O1130   1.918       .  S
Co1129     O1130   1.906       .  S
C1131      C1154   1.423       .  S
C1132      C1142   1.418       .  S
C1133      C1166   1.443       .  S
C1134      C1137   1.428       .  S
C1143      C1144   1.202       .  T
C1145      C1146   1.192       .  T
C1147      C1148   1.214       .  T
C1149      C1150   1.211       .  T
C1151      C1152   1.223       .  T
C1153      C1154   1.199       .  T
C1155      C1156   1.220       .  T
C1157      C1158   1.211       .  T
C1159      C1160   1.221       .  T
C1161      C1162   1.198       .  T
C1163      C1164   1.215       .  T
C1165      C1166   1.211       .  T
C1167      C1168   1.221       .  T
C1169      C1170   1.211       .  T
C1171      C1177   1.481   1_455  S
C1171      C1175   1.536       .  S
C1171      C1364   1.478       .  S
C1172      H1179   1.089       .  S
C1172      C1173   1.380       .  D
C1173      C1190   1.555       .  S
C1174      C1178   1.606       .  S
C1174      H1180   1.110       .  S
C1175      H1181   1.087       .  S
C1176      C1363   1.465       .  S
C1177      H1182   1.083       .  S
C1177      C1178   1.384       .  D
C1178      C1233   1.549       .  S
C1183      C1184   1.524       .  S
C1183      C1189   1.508       .  S
C1183      C1187   1.507       .  S
C1183      C1360   1.478       .  S
C1184      H1191   1.086       .  S
C1184      C1185   1.377       .  D
C1185      C1186   1.561       .  S
C1185      C1202   1.543       .  S
C1186      C1190   1.599       .  S
C1186      C1188   1.581       .  S
C1186      H1192   1.110       .  S
C1187      H1193   1.088       .  S
C1187      C1188   1.363       .  D
C1188      C1359   1.451       .  S
C1189      H1194   1.088       .  S
C1189      C1190   1.387       .  D
C1195      C1196   1.500       .  S
C1195      C1201   1.487       .  S
C1195      C1199   1.510       .  S
C1195      C1356   1.457       .  S
C1196      C1197   1.372       .  D
C1197      C1198   1.585       .  S
C1198      C1202   1.606       .  S
C1198      C1200   1.580       .  S
C1198      H1204   1.110       .  S
C1199      H1205   1.088       .  S
C1199      C1200   1.359       .  D
C1200      C1354   1.460       .  S
C1201      H1206   1.083       .  S
C1201      C1202   1.378       .  D
C1207      C1208   1.502   1_455  S
C1207      C1352   1.478       .  S
C1208      H1215   1.079       .  S
C1208      C1209   1.383       .  D
C1209      C1226   1.544       .  S
C1210      C1214   1.582       .  S
C1210      H1216   1.110       .  S
C1211      H1217   1.088       .  S
C1213      H1218   1.083       .  S
C1213      C1214   1.380       .  D
C1219      C1220   1.489       .  S
C1219      C1225   1.504       .  S
C1219      C1223   1.505       .  S
C1219      C1348   1.459       .  S
C1220      H1227   1.085       .  S
C1220      C1221   1.381       .  D
C1221      C1222   1.607       .  S
C1222      C1226   1.584       .  S
C1222      C1224   1.589       .  S
C1222      H1228   1.110       .  S
C1223      H1229   1.088       .  S
C1223      C1224   1.359       .  D
C1224      C1347   1.462       .  S
C1225      H1230   1.082       .  S
C1225      C1226   1.372       .  D
C1231      C1232   1.498       .  S
C1231      C1237   1.523       .  S
C1231      C1235   1.515       .  S
C1231      C1344   1.479       .  S
C1232      H1239   1.085       .  S
C1232      C1233   1.382       .  D
C1233      C1234   1.606       .  S
C1234      C1238   1.574       .  S
C1234      C1236   1.571       .  S
C1234      H1240   1.110       .  S
C1235      H1241   1.088       .  S
C1235      C1236   1.363       .  D
C1236      C1343   1.450       .  S
C1237      C1238   1.378       .  D
O1243      C1251   1.246       .  A
O1243     Co1263   1.978       .  S
O1244      C1252   1.279       .  A
O1245      C1253   1.269       .  A
O1245     Co1265   2.012   1_554  S
O1246      C1254   1.237       .  A
O1246     Co1266   1.945       .  S
O1247      C1253   1.278       .  A
O1248      C1254   1.249       .  A
O1248     Co1263   1.982       .  S
O1249      C1252   1.267       .  A
O1249     Co1461   1.998   1_554  S
O1250      C1446   1.245   1_554  A
O1250     Co1265   1.962   1_554  S
C1251      O1445   1.245       .  A
C1251      C1336   1.419       .  S
C1252      C1342   1.448       .  S
C1253      C1355   1.461       .  S
C1254      C1341   1.411       .  S
O1255      C1268   1.289       .  A
O1255     Co1263   2.059       .  S
O1256      C1269   1.264       .  A
O1256     Co1264   2.003       .  S
O1257      C1270   1.269       .  A
O1257     Co1460   1.896       .  S
O1258      C1271   1.255   1_556  A
O1259      C1271   1.264       .  A
O1259     Co1264   2.001       .  S
O1260      C1270   1.289       .  A
O1260     Co1263   2.049       .  S
O1261      C1268   1.270       .  A
O1261     Co1266   1.920       .  S
O1262      C1269   1.256   1_556  A
Co1263     O1462   2.264       .  S
Co1265     O1452   1.896       .  S
Co1265     O1267   1.915   1_556  S
Co1266     O1444   1.999       .  S
Co1266     O1462   1.919       .  S
O1267     Co1458   2.264   1_554  S
O1267     Co1461   1.919   1_554  S
C1268      C1345   1.443       .  S
C1269      C1339   1.429   1_554  S
C1270      C1357   1.421       .  S
C1271      C1334   1.414       .  S
O1272      C1280   1.248       .  A
O1272     Co1292   1.978       .  S
O1273      C1281   1.278       .  A
O1273     Co1293   2.011       .  S
O1274      C1282   1.269       .  A
O1274     Co1294   2.012       .  S
O1275      C1478   1.242   1_554  A
O1275     Co1295   1.956   1_654  S
O1276      C1282   1.277       .  A
O1276     Co1293   2.018       .  S
O1277      C1283   1.251       .  A
O1277     Co1292   1.996       .  S
O1278     Co1295   2.018   1_554  S
O1279      C1475   1.238   1_554  A
C1280      O1474   1.238       .  A
C1280      C1340   1.411       .  S
C1281      C1350   1.459       .  S
C1282      C1362   1.461       .  S
C1283      O1470   1.242       .  A
C1283      C1333   1.428       .  S
O1284      C1297   1.292       .  A
O1284     Co1292   2.066   1_455  S
O1285      C1298   1.265       .  A
O1285     Co1293   2.006       .  S
O1286     Co1489   1.909       .  S
O1287      C1300   1.258   1_556  A
O1288      C1300   1.265       .  A
O1288     Co1293   2.003       .  S
O1289      C1299   1.296       .  A
O1289     Co1292   2.077   1_455  S
O1290      C1297   1.272   1_655  A
O1290     Co1490   1.912   1_655  S
O1291      C1298   1.253   1_556  A
O1291     Co1294   1.963   1_556  S
Co1293     O1296   2.091       .  S
Co1294     O1481   1.909   1_554  S
Co1294     O1296   1.917       .  S
Co1295     O1485   1.911   1_455  S
C1297      C1353   1.443       .  S
C1298      C1331   1.414       .  S
C1299      C1365   1.442       .  S
C1300      C1338   1.428   1_554  S
O1301      C1309   1.248       .  A
O1301     Co1321   1.981       .  S
O1302      C1310   1.281       .  A
O1302     Co1322   2.025       .  S
O1303      C1311   1.267       .  A
O1303     Co1323   1.996   1_554  S
O1304      C1507   1.242   1_554  A
O1304     Co1324   1.959   1_554  S
O1305      C1311   1.280       .  A
O1305     Co1322   2.018       .  S
O1306      C1312   1.245       .  A
O1306     Co1321   1.975       .  S
O1307      C1310   1.268       .  A
O1307     Co1324   2.007   1_554  S
O1308      C1504   1.241   1_554  A
O1308     Co1323   1.952   1_554  S
C1309      O1503   1.241       .  A
C1309      C1330   1.416       .  S
C1310      C1346   1.464       .  S
C1311      C1358   1.451       .  S
C1312      O1499   1.242       .  A
C1312      C1335   1.416       .  S
O1313      C1326   1.288       .  A
O1313     Co1321   2.041       .  S
O1314      C1327   1.264       .  A
O1314     Co1322   1.996       .  S
O1315      C1328   1.270       .  A
O1315     Co1518   1.922       .  S
O1316      C1329   1.255   1_556  A
O1316     Co1324   1.981       .  S
O1317      C1329   1.265       .  A
O1317     Co1322   2.009       .  S
O1318      C1328   1.289       .  A
O1318     Co1321   2.054       .  S
O1319      C1326   1.271       .  A
O1319     Co1519   1.906       .  S
O1320      C1327   1.259   1_556  A
O1320     Co1323   1.975       .  S
Co1321     O1520   2.270       .  S
Co1322     O1325   2.088       .  S
Co1323     O1510   1.922       .  S
Co1323     O1325   1.918   1_556  S
Co1324     O1514   1.906       .  S
Co1324     O1325   1.906   1_556  S
O1325     Co1516   2.270   1_554  S
C1326      C1349   1.423       .  S
C1327      C1337   1.418   1_554  S
C1328      C1361   1.443       .  S
C1329      C1332   1.428   1_554  S
C1330      C1526   1.194       .  T
C1331      C1525   1.194   1_554  T
C1332      C1528   1.202       .  T
C1333      C1527   1.202       .  T
C1334      C1530   1.194   1_554  T
C1335      C1529   1.194       .  T
C1336      C1532   1.197       .  T
C1337      C1531   1.197       .  T
C1338      C1339   1.202       .  T
C1340      C1341   1.192       .  T
C1342      C1343   1.214       .  T
C1344      C1345   1.211       .  T
C1346      C1347   1.223       .  T
C1348      C1349   1.200       .  T
C1350      C1351   1.220       .  T
C1352      C1353   1.211       .  T
C1354      C1355   1.221       .  T
C1356      C1357   1.198       .  T
C1358      C1359   1.215       .  T
C1360      C1361   1.211       .  T
C1362      C1363   1.221       .  T
C1364      C1365   1.211       .  T
C1366      C1372   1.481   1_455  S
C1366      C1370   1.536       .  S
C1366      C1559   1.479       .  S
C1367      H1374   1.089       .  S
C1367      C1368   1.380       .  D
C1368      C1385   1.555       .  S
C1369      C1373   1.606       .  S
C1369      H1375   1.110       .  S
C1370      H1376   1.087       .  S
C1371      C1558   1.465       .  S
C1372      H1377   1.082       .  S
C1372      C1373   1.384       .  D
C1373      C1428   1.549       .  S
C1378      C1379   1.524       .  S
C1378      C1384   1.508       .  S
C1378      C1382   1.506       .  S
C1378      C1555   1.478       .  S
C1379      H1386   1.086       .  S
C1379      C1380   1.377       .  D
C1380      C1381   1.561       .  S
C1380      C1397   1.543       .  S
C1381      C1385   1.599       .  S
C1381      C1383   1.582       .  S
C1381      H1387   1.110       .  S
C1382      H1388   1.088       .  S
C1382      C1383   1.362       .  D
C1383      C1554   1.451       .  S
C1384      H1389   1.088       .  S
C1384      C1385   1.387       .  D
C1390      C1391   1.500       .  S
C1390      C1396   1.487       .  S
C1390      C1394   1.510       .  S
C1390      C1551   1.456       .  S
C1391      C1392   1.372       .  D
C1392      C1393   1.585       .  S
C1393      C1397   1.606       .  S
C1393      C1395   1.580       .  S
C1393      H1399   1.110       .  S
C1394      H1400   1.088       .  S
C1394      C1395   1.359       .  D
C1395      C1549   1.460       .  S
C1396      H1401   1.083       .  S
C1396      C1397   1.378       .  D
C1402      C1403   1.502   1_455  S
C1402      C1547   1.478       .  S
C1403      H1410   1.079       .  S
C1403      C1404   1.383       .  D
C1404      C1421   1.544       .  S
C1405      C1409   1.582       .  S
C1405      H1411   1.110       .  S
C1406      H1412   1.088       .  S
C1408      H1413   1.083       .  S
C1408      C1409   1.380       .  D
C1414      C1415   1.489       .  S
C1414      C1420   1.504       .  S
C1414      C1418   1.505       .  S
C1414      C1543   1.459       .  S
C1415      H1422   1.085       .  S
C1415      C1416   1.381       .  D
C1416      C1417   1.607       .  S
C1417      C1421   1.584       .  S
C1417      C1419   1.589       .  S
C1417      H1423   1.110       .  S
C1418      H1424   1.088       .  S
C1418      C1419   1.359       .  D
C1419      C1542   1.462       .  S
C1420      H1425   1.082       .  S
C1420      C1421   1.372       .  D
C1426      C1427   1.498       .  S
C1426      C1432   1.523       .  S
C1426      C1430   1.515       .  S
C1426      C1539   1.479       .  S
C1427      H1434   1.085       .  S
C1427      C1428   1.382       .  D
C1428      C1429   1.606       .  S
C1429      C1433   1.574       .  S
C1429      C1431   1.571       .  S
C1429      H1435   1.110       .  S
C1430      H1436   1.088       .  S
C1430      C1431   1.363       .  D
C1431      C1538   1.450       .  S
C1432      C1433   1.378       .  D
O1438      C1446   1.246       .  A
O1438     Co1458   1.977       .  S
O1439      C1447   1.279       .  A
O1440      C1448   1.269       .  A
O1440     Co1460   2.012       .  S
O1441      C1449   1.237   1_554  A
O1441     Co1461   1.945   1_554  S
O1442      C1448   1.278       .  A
O1443      C1449   1.249       .  A
O1443     Co1458   1.982       .  S
O1444      C1447   1.267       .  A
O1445     Co1460   1.961       .  S
C1446      C1531   1.419       .  S
C1447      C1537   1.448       .  S
C1448      C1550   1.461       .  S
C1449      C1536   1.411   1_556  S
O1450      C1463   1.289       .  A
O1450     Co1458   2.059       .  S
O1451      C1464   1.264       .  A
O1451     Co1459   2.003       .  S
O1452      C1465   1.268       .  A
O1453      C1466   1.255       .  A
O1454      C1466   1.264       .  A
O1454     Co1459   2.001       .  S
O1455      C1465   1.289       .  A
O1455     Co1458   2.049       .  S
O1456      C1463   1.270       .  A
O1456     Co1461   1.920       .  S
O1457      C1464   1.256       .  A
Co1460     O1462   1.916       .  S
C1463      C1540   1.443       .  S
C1464      C1534   1.429       .  S
C1465      C1552   1.420       .  S
C1466      C1529   1.414       .  S
O1467      C1475   1.248       .  A
O1467     Co1487   1.978       .  S
O1468      C1476   1.278       .  A
O1468     Co1488   2.011       .  S
O1469      C1477   1.269       .  A
O1469     Co1489   2.012       .  S
O1470     Co1490   1.956   1_655  S
O1471      C1477   1.277       .  A
O1471     Co1488   2.018       .  S
O1472      C1478   1.251       .  A
O1472     Co1487   1.996       .  S
O1473     Co1490   2.018       .  S
C1475      C1535   1.411   1_556  S
C1476      C1545   1.459       .  S
C1477      C1557   1.461       .  S
C1478      C1528   1.429       .  S
O1479      C1492   1.292       .  A
O1479     Co1487   2.066   1_455  S
O1480      C1493   1.265       .  A
O1480     Co1488   2.006       .  S
O1482      C1495   1.257       .  A
O1483      C1495   1.265       .  A
O1483     Co1488   2.003       .  S
O1484      C1494   1.296       .  A
O1484     Co1487   2.077   1_455  S
O1485      C1492   1.272   1_655  A
O1486      C1493   1.253       .  A
O1486     Co1489   1.963       .  S
Co1488     O1491   2.091       .  S
Co1489     O1491   1.917       .  S
C1492      C1548   1.443       .  S
C1493      C1526   1.415       .  S
C1494      C1560   1.443       .  S
C1495      C1533   1.428       .  S
O1496      C1504   1.248       .  A
O1496     Co1516   1.981       .  S
O1497      C1505   1.281       .  A
O1497     Co1517   2.025       .  S
O1498      C1506   1.267       .  A
O1498     Co1518   1.996       .  S
O1499     Co1519   1.959       .  S
O1500      C1506   1.280       .  A
O1500     Co1517   2.018       .  S
O1501      C1507   1.245       .  A
O1501     Co1516   1.975       .  S
O1502      C1505   1.268       .  A
O1502     Co1519   2.007       .  S
O1503     Co1518   1.952       .  S
C1504      C1525   1.415       .  S
C1505      C1541   1.464       .  S
C1506      C1553   1.451       .  S
C1507      C1530   1.416       .  S
O1508      C1521   1.288       .  A
O1508     Co1516   2.041       .  S
O1509      C1522   1.264       .  A
O1509     Co1517   1.996       .  S
O1510      C1523   1.270       .  A
O1511      C1524   1.255       .  A
O1511     Co1519   1.981       .  S
O1512      C1524   1.265       .  A
O1512     Co1517   2.009       .  S
O1513      C1523   1.289       .  A
O1513     Co1516   2.054       .  S
O1514      C1521   1.271       .  A
O1515      C1522   1.259       .  A
O1515     Co1518   1.975       .  S
Co1517     O1520   2.088       .  S
Co1518     O1520   1.918       .  S
Co1519     O1520   1.906       .  S
C1521      C1544   1.423       .  S
C1522      C1532   1.418       .  S
C1523      C1556   1.443       .  S
C1524      C1527   1.428       .  S
C1533      C1534   1.202       .  T
C1535      C1536   1.192       .  T
C1537      C1538   1.214       .  T
C1539      C1540   1.211       .  T
C1541      C1542   1.223       .  T
C1543      C1544   1.199       .  T
C1545      C1546   1.220       .  T
C1547      C1548   1.211       .  T
C1549      C1550   1.221       .  T
C1551      C1552   1.198       .  T
C1553      C1554   1.215       .  T
C1555      C1556   1.211       .  T
C1557      C1558   1.221       .  T
C1559      C1560   1.211       .  T
