geometry optimzed in LAMMPS
_audit_creation_date              2020-11-30 
_audit_creation_method            'lammps2cif' 
_symmetry_space_group_name_H-M    'P1' 
_symmetry_Int_Tables_number       1 
_symmetry_cell_setting            triclinic 
loop_ 
_symmetry_equiv_pos_as_xyz 
  x,y,z 
_cell_length_a                    44.44368575 
_cell_length_b                    44.31183659310543 
_cell_length_c                    52.23271698235528 
_cell_angle_alpha                 90.3891869163757 
_cell_angle_beta                  89.37947410006345 
_cell_angle_gamma                 120.62559371767688 
loop_ 
_atom_site_label 
_atom_site_type_symbol 
_atom_site_fract_x 
_atom_site_fract_y 
_atom_site_fract_z 
_atom_site_charge 
C1          C  0.06837022  0.12572073  0.63434992     0.80200
N2          N  0.04577450  0.13158990  0.64857989    -0.78100
C3          C  0.04760915  0.13257354  0.67463015     0.82600
N4          N  0.07134536  0.12702121  0.68604499    -0.78100
C5          C  0.09305183  0.12010525  0.67262308     0.82700
N6          N  0.09140129  0.11893583  0.64660479    -0.79800
C7          C  0.05839101  0.34669313  0.63221199     0.80200
N8          N  0.08575510  0.37259256  0.64584468    -0.78100
C9          C  0.08222825  0.37531785  0.67161581     0.82600
N10         N  0.05163496  0.35324735  0.68316130    -0.78100
C11         C  0.02417192  0.32859697  0.67004504     0.82700
N12         N  0.02733502  0.32532103  0.64453306    -0.79800
C13         C  0.44845643  0.45949711  0.79494708     0.80200
N14         N  0.42958539  0.42374690  0.79565643    -0.78100
C15         C  0.44572450  0.40480643  0.79803492     0.82600
N16         N  0.48146240  0.42215034  0.79945377    -0.78100
C17         C  0.50103839  0.45795274  0.79794941     0.82700
N18         N  0.48417285  0.47644008  0.79606250    -0.79800
O19         O  0.32046064  0.00702625  0.77886129    -0.85400
O20         O  0.37381680  0.07252032  0.79509166    -0.82400
C21         C  0.40364111  0.09700799  0.80168832     0.98100
O22         O  0.42989149  0.09292605  0.80062499    -0.82500
O23         O  0.41700664  0.04343458  0.83707438    -0.85100
C24         C  0.39791282  0.01510222  0.84892918     1.02600
O25         O  0.38105519  0.98641245  0.83685996    -0.77900
O26         O  0.32502605  0.48543673  0.81244109    -0.78000
C27         C  0.30716257  0.99192233  0.79980367     1.02600
O28         O  0.36970493  0.50647848  0.74043855    -0.85400
O29         O  0.41544907  0.07383092  0.75242814    -0.82400
C30         C  0.44307671  0.07282049  0.74955223     0.98100
O31         O  0.45110163  0.05680209  0.76545805    -0.82500
O32         O  0.44470712  0.01080357  0.80395860    -0.85100
C33         C  0.42966896  0.47937906  0.79524660     1.02600
O34         O  0.39782143  0.46388964  0.78905044    -0.77900
O35         O  0.34093713  0.45981734  0.76505362    -0.78000
C36         C  0.35108390  0.47383907  0.74310000     1.02500
Cr37       Cr  0.37063314  0.03845959  0.76898619     1.93700
Cr38       Cr  0.43228006  0.04862839  0.80096715     1.93200
Cr39       Cr  0.36309011  0.47739009  0.79966932     1.39100
O40         O  0.38876553  0.02106836  0.79032811    -1.23100
O41         O  0.37332448  0.21762168  0.80518948    -0.85400
O42         O  0.31743160  0.22294040  0.78926047    -0.82400
C43         C  0.30459095  0.22599267  0.81000726     0.98100
O44         O  0.31985917  0.25446934  0.82240158    -0.82500
O45         O  0.37779287  0.31227562  0.84305922    -0.85100
C46         C  0.39421326  0.30077685  0.85568297     1.02600
O47         O  0.41276064  0.29062859  0.84426094    -0.77900
O48         O  0.42912520  0.25604801  0.80741243    -0.78000
C49         C  0.40397176  0.22487671  0.80996682     1.02600
O50         O  0.41223347  0.25756179  0.76079977    -0.85400
O51         O  0.35894827  0.26818456  0.74961456    -0.82400
C52         C  0.33853054  0.27986069  0.75160408     0.98100
O53         O  0.33294556  0.28963099  0.77328514    -0.82500
O54         O  0.39298996  0.34816715  0.79385070    -0.85100
C55         C  0.42457206  0.36581170  0.80102358     1.02600
O56         O  0.43845231  0.35046874  0.81166227    -0.77900
O57         O  0.44436251  0.31234587  0.77230122    -0.78000
C58         C  0.43566114  0.28862127  0.75565162     1.02500
Cr59       Cr  0.36686015  0.24448317  0.77796883     1.93700
Cr60       Cr  0.35795073  0.30001706  0.80733482     1.93200
Cr61       Cr  0.42789035  0.30096089  0.80818542     1.39100
O62         O  0.38401078  0.28203793  0.79789548    -1.23100
O63         O  0.18417199  0.07905994  0.79040883    -0.85400
O64         O  0.18685563  0.02152121  0.80688563    -0.82400
C65         C  0.17890378  0.99045310  0.81125126     0.98100
O66         O  0.14987703  0.47026352  0.80739782    -0.82500
O67         O  0.11090935  0.48253074  0.84364582    -0.85100
C68         C  0.10191897  0.99844206  0.85604838     1.02600
O69         O  0.09444137  0.01876082  0.84423712    -0.77900
O70         O  0.15346669  0.07604462  0.82405287    -0.78000
C71         C  0.18147936  0.09190531  0.81119278     1.02600
O72         O  0.13899218  0.03841849  0.75074212    -0.85400
O73         O  0.15376180  0.49290735  0.76069610    -0.82400
C74         C  0.12433156  0.46672576  0.75520419     0.98100
O75         O  0.09825048  0.45740309  0.76992992    -0.82500
O76         O  0.05484877  0.46068331  0.80802504    -0.85100
C77         C  0.04037178  0.47688049  0.79958660     1.02600
O78         O  0.05879653  0.00760383  0.79584488    -0.77900
O79         O  0.11883548  0.06552621  0.77490976    -0.78000
C80         C  0.12755919  0.05911433  0.75307490     1.02500
Cr81       Cr  0.16183203  0.02940866  0.77912980     1.93700
Cr82       Cr  0.10494546  0.47146968  0.80667654     1.93200
Cr83       Cr  0.10754761  0.03966563  0.80883933     1.39100
O84         O  0.12352279  0.01205762  0.79840213    -1.23100
C85         C  0.28209292  0.33702410  0.62886481     0.80200
N86         N  0.27853372  0.30999751  0.64370476    -0.78100
C87         C  0.28309140  0.31445358  0.66949781     0.82600
N88         N  0.29261288  0.34584889  0.67992118    -0.78100
C89         C  0.29726943  0.37286837  0.66555585     0.82700
N90         N  0.29226212  0.36873547  0.64000119    -0.79800
C91         C  0.22232821  0.44446145  0.29573985     0.80200
N92         N  0.19419201  0.44222838  0.30861793    -0.78100
C93         C  0.19261417  0.43993389  0.33463652     0.82600
N94         N  0.21846273  0.43943170  0.34735477    -0.78100
C95         C  0.24587418  0.44085961  0.33512915     0.82700
N96         N  0.24787253  0.44313936  0.30920274    -0.79800
C97         C  0.44639431  0.16749771  0.30076393     0.80200
N98         N  0.44464912  0.19157483  0.31637243    -0.78100
C99         C  0.44639207  0.18929209  0.34222171     0.82600
N100        N  0.45031669  0.16357282  0.35202917    -0.78100
C101        C  0.45292595  0.14016729  0.33726791     0.82700
N102        N  0.45153845  0.14224005  0.31138348    -0.79800
C103        C  0.11497655  0.28446572  0.46379752     0.80200
N104        N  0.09776981  0.24862987  0.46506735    -0.78100
C105        C  0.11573094  0.23112669  0.46510520     0.82600
N106        N  0.15143786  0.25018183  0.46446103    -0.78100
C107        C  0.16908700  0.28603471  0.46276085     0.82700
N108        N  0.15061523  0.30289661  0.46239181    -0.79800
O109        O  0.49702720  0.35235944  0.46865103    -0.85400
O110        O  0.05940569  0.40800787  0.45410835    -0.82400
C111        C  0.07401727  0.42019605  0.47528197     0.98100
O112        O  0.08591131  0.40455384  0.48804160    -0.82500
O113        O  0.08734662  0.34796644  0.50824811    -0.85100
C114        C  0.05921148  0.33125322  0.52115720     1.02600
O115        O  0.03038587  0.31333648  0.50990200    -0.77900
O116        O  0.47900669  0.29670833  0.47373035    -0.78000
C117        C  0.47319740  0.32187033  0.47436997     1.02600
O118        O  0.99997627  0.31317280  0.42485915    -0.85400
O119        O  0.06556428  0.36677145  0.41457812    -0.82400
C120        C  0.09769207  0.38823831  0.41706511     0.98100
O121        O  0.11157418  0.39489871  0.43912007    -0.82500
O122        O  0.10919355  0.33506108  0.45904050    -0.85100
C123        C  0.09530671  0.30342916  0.46614258     1.02600
O124        O  0.06511552  0.28809646  0.47637872    -0.77900
O125        O  0.01761293  0.27825960  0.43894072    -0.78000
C126        C  0.00130574  0.28550380  0.42285630     1.02500
Cr127      Cr  0.03196873  0.35844620  0.44218004     1.93700
Cr128      Cr  0.09508626  0.36841983  0.47273420     1.93200
Cr129      Cr  0.02528209  0.29749325  0.47397205     1.39100
O130        O  0.05103050  0.34136498  0.46282734    -1.23100
O131        O  0.04013308  0.04085068  0.47191638    -0.85400
O132        O  0.48611768  0.05028734  0.45536590    -0.82400
C133        C  0.47371975  0.05412768  0.47610432     0.98100
O134        O  0.49132835  0.08135422  0.48933364    -0.82500
O135        O  0.04898711  0.13859244  0.50988844    -0.85100
C136        C  0.06673421  0.12864621  0.52250874     1.02600
O137        O  0.08472322  0.11798200  0.51104603    -0.77900
O138        O  0.09630963  0.07767144  0.47644723    -0.78000
C139        C  0.07007075  0.04667490  0.47796346     1.02600
O140        O  0.08071861  0.07790767  0.42806959    -0.85400
O141        O  0.03222080  0.09528718  0.41593522    -0.82400
C142        C  0.01311380  0.10853126  0.41743055     0.98100
O143        O  0.00585684  0.11696946  0.43910091    -0.82500
O144        O  0.06457794  0.17417619  0.46082520    -0.85100
C145        C  0.09640671  0.19172950  0.46704206     1.02600
O146        O  0.11156514  0.17606779  0.47549135    -0.77900
O147        O  0.11646241  0.13247495  0.43898311    -0.78000
C148        C  0.10851047  0.10671989  0.42435804     1.02500
Cr149      Cr  0.03630737  0.06927764  0.44456580     1.93700
Cr150      Cr  0.02978821  0.12635296  0.47378272     1.93200
Cr151      Cr  0.09880536  0.12486400  0.47470043     1.39100
O152        O  0.05505419  0.10721509  0.46442172    -1.23100
O153        O  0.35201226  0.41470013  0.45498343    -0.85400
O154        O  0.35635489  0.35726387  0.46884892    -0.82400
C155        C  0.34821466  0.32609677  0.47323859     0.98100
O156        O  0.31753256  0.30127898  0.46876030    -0.82500
O157        O  0.28083962  0.31362715  0.50590026    -0.85100
C158        C  0.27103223  0.33196442  0.51802899     1.02600
O159        O  0.26085458  0.35011501  0.50626273    -0.77900
O160        O  0.31837004  0.40969545  0.48745470    -0.78000
C161        C  0.34716802  0.42634848  0.47562032     1.02600
O162        O  0.30833561  0.37664585  0.41386825    -0.85400
O163        O  0.31919254  0.32230484  0.42274049    -0.82400
C164        C  0.28885202  0.29840784  0.41670391     0.98100
O165        O  0.26373930  0.28900432  0.43232599    -0.82500
O166        O  0.22336963  0.29112723  0.47228216    -0.85100
C167        C  0.20808850  0.30638212  0.46393846     1.02600
O168        O  0.22577459  0.33847377  0.45773847    -0.77900
O169        O  0.28423233  0.39944666  0.43843618    -0.78000
C170        C  0.29447560  0.39521367  0.41656682     1.02500
Cr171      Cr  0.33084732  0.36616548  0.44181233     1.93700
Cr172      Cr  0.27280300  0.30222623  0.46909810     1.93200
Cr173      Cr  0.27370327  0.37240432  0.47151155     1.39100
O174        O  0.29219233  0.34715821  0.46086851    -1.23100
C175        C  0.22155730  0.17027581  0.29909288     0.80200
N176        N  0.24427243  0.20281181  0.30867245    -0.78100
C177        C  0.24598979  0.20875578  0.33407263     0.82600
N178        N  0.22486828  0.18273409  0.34986339    -0.78100
C179        C  0.20163718  0.15044472  0.34125619     0.82700
N180        N  0.19942348  0.14399004  0.31552341    -0.79800
C181        C  0.38571058  0.02486277  0.95933385     0.80200
N182        N  0.35414888  0.49530533  0.97051665    -0.78100
C183        C  0.35002390  0.49702065  0.99620844     0.82600
N184        N  0.37984068  0.02958479  0.01062179    -0.78100
C185        C  0.40981405  0.05248417  0.99869176     0.82700
N186        N  0.41266765  0.05063309  0.97298647    -0.79800
C187        C  0.37837787  0.28328833  0.96633904     0.80200
N188        N  0.35257216  0.28631268  0.97853553    -0.78100
C189        C  0.34934641  0.28330834  0.00445361     0.82600
N190        N  0.37077410  0.27629432  0.01765793    -0.78100
C191        C  0.39507063  0.27157550  0.00604646     0.82700
N192        N  0.39919635  0.27509688  0.98024414    -0.79800
C193        C  0.27360106  0.11462568  0.13212793     0.80200
N194        N  0.30928374  0.13274522  0.13323357    -0.78100
C195        C  0.32757343  0.11561811  0.13368595     0.82600
N196        N  0.30973359  0.07989122  0.13314441    -0.78100
C197        C  0.27407634  0.06113498  0.13212294     0.82700
N198        N  0.25613415  0.07870572  0.13180803    -0.79800
O199        O  0.01340973  0.23607259  0.13556122    -0.85400
O200        O  0.00499949  0.17526440  0.11415819    -0.82400
C201        C  0.00694252  0.16144191  0.13445449     0.98100
O202        O  0.98137913  0.14890237  0.14992918    -0.82500
O203        O  0.42351667  0.14301913  0.17602787    -0.85100
C204        C  0.43282703  0.16996823  0.18981791     1.02600
O205        O  0.44067580  0.19896999  0.17973835    -0.77900
O206        O  0.97627987  0.25327754  0.14506150    -0.78000
C207        C  0.00724025  0.25864245  0.14504041     1.02600
O208        O  0.47267878  0.23981088  0.09690501    -0.85400
O209        O  0.45635866  0.17369386  0.08110838    -0.82400
C210        C  0.44697230  0.14165873  0.08185516     0.98100
O211        O  0.44155594  0.12583592  0.10322316    -0.82500
O212        O  0.38446011  0.12238442  0.12890152    -0.85100
C213        C  0.36645848  0.13571277  0.13619376     1.02600
O214        O  0.38113434  0.16601936  0.14615889    -0.77900
O215        O  0.41874946  0.21538653  0.10971222    -0.78000
C216        C  0.44192610  0.23259899  0.09304955     1.02500
Cr217      Cr  0.98387815  0.20450254  0.10842161     1.93700
Cr218      Cr  0.43376750  0.13840361  0.13910713     1.93200
Cr219      Cr  0.43061419  0.20667978  0.14439980     1.39100
O220        O  0.44905656  0.18280564  0.13106689    -1.23100
O221        O  0.20766529  0.37287944  0.13554277    -0.85400
O222        O  0.14989624  0.37649348  0.12246755    -0.82400
C223        C  0.13797735  0.38222551  0.14273842     0.98100
O224        O  0.15452455  0.41126777  0.15406305    -0.82500
O225        O  0.21316336  0.46906267  0.17244900    -0.85100
C226        C  0.23076459  0.45856244  0.18456586     1.02600
O227        O  0.24899875  0.44843775  0.17259695    -0.77900
O228        O  0.26335910  0.41162813  0.13627436    -0.78000
C229        C  0.23844139  0.38073892  0.14078877     1.02600
O230        O  0.24250870  0.41049199  0.08909845    -0.85400
O231        O  0.18747842  0.42003610  0.08031007    -0.82400
C232        C  0.16851376  0.43342468  0.08282603     0.98100
O233        O  0.16409619  0.44387757  0.10454694    -0.82500
O234        O  0.22428009  0.50319872  0.12330541    -0.85100
C235        C  0.25581211  0.52135050  0.13016379     1.02600
O236        O  0.27141553  0.50625318  0.13848958    -0.77900
O237        O  0.27529406  0.46586288  0.09913514    -0.78000
C238        C  0.26573062  0.44129884  0.08301344     1.02500
Cr239      Cr  0.19839866  0.39808443  0.10850634     1.93700
Cr240      Cr  0.19120447  0.45538775  0.13758010     1.93200
Cr241      Cr  0.26144030  0.45660506  0.13585584     1.39100
O242        O  0.21679840  0.43690743  0.12733406    -1.23100
O243        O  0.16249824  0.18858096  0.14021970    -0.85400
O244        O  0.22423986  0.24384941  0.12426745    -0.82400
C245        C  0.23960099  0.25495380  0.14526605     0.98100
O246        O  0.25010608  0.23753196  0.15727133    -0.82500
O247        O  0.24768582  0.17820344  0.17536113    -0.85100
C248        C  0.21948921  0.16189693  0.18824391     1.02600
O249        O  0.19030844  0.14465457  0.17731001    -0.77900
O250        O  0.13906767  0.13199481  0.14136970    -0.78000
C251        C  0.13586006  0.15884083  0.14301832     1.02600
O252        O  0.15983754  0.15080663  0.09420388    -0.85400
O253        O  0.22621565  0.20294353  0.08334711    -0.82400
C254        C  0.25859371  0.22358850  0.08562777     0.98100
O255        O  0.27332053  0.22776895  0.10724657    -0.82500
O256        O  0.26882064  0.16576462  0.12619963    -0.85100
C257        C  0.25407597  0.13401943  0.13330967     1.02600
O258        O  0.22325723  0.11906337  0.14260469    -0.77900
O259        O  0.17729712  0.11444354  0.10499610    -0.78000
C260        C  0.16222792  0.12415779  0.08958847     1.02500
Cr261      Cr  0.19441654  0.19482439  0.11208171     1.93700
Cr262      Cr  0.25666268  0.20029125  0.14060425     1.93200
Cr263      Cr  0.18473947  0.13089631  0.14092970     1.39100
O264        O  0.21245785  0.17517157  0.13090116    -1.23100
C265        C  0.11318242  0.00497394  0.96726601     0.80200
N266        N  0.11605558  0.48102004  0.97822225    -0.78100
C267        C  0.11753324  0.48026389  0.00414576     0.82600
N268        N  0.11651488  0.00612656  0.01899676    -0.78100
C269        C  0.11547248  0.03210803  0.00677210     0.82700
N270        N  0.11420445  0.03190285  0.98085815    -0.79800
C271        C  0.16712690  0.11383982  0.04376126    -0.12300
C272        C  0.14680228  0.10436587  0.06616827     0.04700
C273        C  0.11242903  0.07571314  0.06601280    -0.07600
C274        C  0.09997855  0.05481121  0.04411901    -0.08300
C275        C  0.12159722  0.06206559  0.02247283    -0.02900
C276        C  0.15478274  0.09280205  0.02186492     0.03900
N277        N  0.17798029  0.10027574  0.00056779     0.66400
H278        H  0.19348202  0.13631866  0.04380083     0.15300
H279        H  0.07468870  0.03085428  0.04492213     0.15100
N280        N  0.09097953  0.06605645  0.08853277     0.74200
O281        O  0.18388358  0.12485380  0.98549071    -0.39300
O282        O  0.19712523  0.08687470  0.99954622    -0.39200
O283        O  0.07006235  0.07710707  0.09177043    -0.39900
O284        O  0.08907299  0.04248505  0.10304940    -0.40000
C285        C  0.21630410  0.32261192  0.16131875    -0.12300
C286        C  0.24449070  0.35238503  0.15011700     0.04700
C287        C  0.27549554  0.35173922  0.14520870    -0.07600
C288        C  0.27541700  0.31998596  0.14744989    -0.08300
C289        C  0.24487923  0.28887841  0.15459438    -0.02900
C290        C  0.21582152  0.29089528  0.16310894     0.03900
N291        N  0.18446415  0.26027186  0.17150789     0.66400
H292        H  0.19371492  0.32349913  0.16753306     0.15300
H293        H  0.29831408  0.31901826  0.14153153     0.15100
N294        N  0.30633828  0.38214622  0.13613158     0.74200
O295        O  0.18228904  0.24969437  0.19419054    -0.39300
O296        O  0.15701983  0.24869988  0.15844968    -0.39200
O297        O  0.33061390  0.40049758  0.15156699    -0.39900
O298        O  0.31213831  0.38660347  0.11239475    -0.40000
C299        C  0.17033449  0.44845923  0.03675372    -0.12300
C300        C  0.15141939  0.43709280  0.05991559     0.04700
C301        C  0.11723094  0.43139524  0.06110908    -0.07600
C302        C  0.10409409  0.44064668  0.04032454    -0.08300
C303        C  0.12472558  0.45622083  0.01840277    -0.02900
C304        C  0.15747184  0.45858947  0.01612409     0.03900
N305        N  0.17991315  0.47569898  0.99465268     0.66400
H306        H  0.19651489  0.45253834  0.03547468     0.15300
H307        H  0.07888366  0.43878568  0.04229583     0.15100
N308        N  0.09604049  0.41747965  0.08361725     0.74200
O309        O  0.19641726  0.50874311  0.99328790    -0.39300
O310        O  0.18741594  0.45833494  0.97932336    -0.39200
O311        O  0.09140244  0.43754612  0.09826315    -0.39900
O312        O  0.07689243  0.38469930  0.08613015    -0.40000
C313        C  0.10035819  0.18212673  0.12709947    -0.12300
C314        C  0.10160615  0.15710980  0.14253767     0.04700
C315        C  0.07106974  0.13280550  0.15595667    -0.07600
C316        C  0.04030384  0.13476944  0.15410098    -0.08300
C317        C  0.03953052  0.16029627  0.13853775    -0.02900
C318        C  0.07041098  0.18416594  0.12505988     0.03900
N319        N  0.07224122  0.21117574  0.10908937     0.66400
H320        H  0.12315524  0.20065554  0.11610071     0.15300
H321        H  0.01693387  0.11596686  0.16437540     0.15100
N322        N  0.07102806  0.10660731  0.17172638     0.74200
O323        O  0.08223137  0.24109115  0.11847131    -0.39300
O324        O  0.07104331  0.20739374  0.08507894    -0.39200
O325        O  0.07653199  0.11209306  0.19541494    -0.39900
O326        O  0.06003966  0.07622356  0.16286478    -0.40000
C327        C  0.06758611  0.29159593  0.16061817    -0.12300
C328        C  0.03765505  0.29226906  0.15355783     0.04700
C329        C  0.04037611  0.32514382  0.14975305    -0.07600
C330        C  0.07364488  0.35582122  0.14904355    -0.08300
C331        C  0.10394638  0.35394222  0.15245684    -0.02900
C332        C  0.10042925  0.32185054  0.15974846     0.03900
N333        N  0.13031033  0.31866680  0.16354529     0.66400
H334        H  0.06598709  0.26680400  0.16450729     0.15300
H335        H  0.07591811  0.38047265  0.14363448     0.15100
N336        N  0.01025208  0.32752642  0.14432202     0.74200
O337        O  0.14100208  0.32020483  0.18606600    -0.39300
O338        O  0.13895112  0.30459058  0.14613993    -0.39200
O339        O  0.99615287  0.33574266  0.16198398    -0.39900
O340        O  0.00185616  0.32789555  0.12139997    -0.40000
C341        C  0.26716497  0.22989423  0.03826846    -0.12300
C342        C  0.27862971  0.24408596  0.06286222     0.04700
C343        C  0.30793917  0.27824923  0.06493136    -0.07600
C344        C  0.32695994  0.29575686  0.04296291    -0.08300
C345        C  0.31901127  0.27877969  0.01909658    -0.02900
C346        C  0.28720787  0.24687863  0.01643839     0.03900
N347        N  0.27776739  0.22887287  0.99243231     0.66400
H348        H  0.24393665  0.20426954  0.03609412     0.15300
H349        H  0.35133663  0.32040647  0.04526876     0.15100
N350        N  0.31980775  0.29507141  0.08918036     0.74200
O351        O  0.28857063  0.20832279  0.98654767    -0.39300
O352        O  0.25428381  0.22904467  0.97919219    -0.39200
O353        O  0.34144003  0.29053787  0.10153593    -0.39900
O354        O  0.31625934  0.32086083  0.09463419    -0.40000
C355        C  0.39938231  0.21900892  0.05883052    -0.12300
C356        C  0.43273148  0.24183657  0.06844796     0.04700
C357        C  0.45638477  0.27160306  0.05385973    -0.07600
C358        C  0.44525299  0.27905913  0.03093219    -0.08300
C359        C  0.41123614  0.25695054  0.02214445    -0.02900
C360        C  0.38865026  0.22604175  0.03585019     0.03900
N361        N  0.35329234  0.20341937  0.02796289     0.66400
H362        H  0.38119610  0.19562648  0.06938880     0.15300
H363        H  0.46223695  0.30354980  0.02111614     0.15100
N364        N  0.49045020  0.29623328  0.06312781     0.74200
O365        O  0.34645533  0.17958328  0.01175606    -0.39300
O366        O  0.32864862  0.20324353  0.04033837    -0.39200
O367        O  0.01376966  0.28954820  0.05590152    -0.39900
O368        O  0.99520530  0.32449791  0.06766611    -0.40000
C369        C  0.31461590  0.44432718  0.02189232    -0.12300
C370        C  0.31754925  0.47404601  0.01020334     0.04700
C371        C  0.29852540  0.48890442  0.02040608    -0.07600
C372        C  0.28047837  0.47660984  0.04362774    -0.08300
C373        C  0.28038638  0.44906220  0.05673120    -0.02900
C374        C  0.29582982  0.43135555  0.04492263     0.03900
N375        N  0.29605563  0.40276427  0.05722799     0.66400
H376        H  0.32974973  0.43321134  0.01444977     0.15300
H377        H  0.26785444  0.48978736  0.05208970     0.15100
N378        N  0.30855188  0.03098355  0.01526517     0.74200
O379        O  0.26826843  0.37324558  0.05814280    -0.39300
O380        O  0.32491976  0.40460507  0.06116240    -0.39200
O381        O  0.28397530  0.03117950  0.00355271    -0.39900
O382        O  0.33407110  0.05957278  0.02299182    -0.40000
C383        C  0.43331429  0.11275541  0.01223563    -0.12300
C384        C  0.43503985  0.08218912  0.01391588     0.04700
C385        C  0.44666970  0.07481956  0.03665282    -0.07600
C386        C  0.45083274  0.09476270  0.05857442    -0.08300
C387        C  0.44512095  0.12314022  0.05778216    -0.02900
C388        C  0.43840235  0.13341903  0.03394728     0.03900
N389        N  0.43275685  0.16230172  0.03198806     0.66400
H390        H  0.42377015  0.11823921  0.99489055     0.15300
H391        H  0.45783223  0.08755103  0.07637237     0.15100
N392        N  0.45085694  0.04493153  0.03816896     0.74200
O393        O  0.95809215  0.19198046  0.02550948    -0.39300
O394        O  0.40194577  0.15653446  0.03054782    -0.39200
O395        O  0.47335741  0.04326991  0.02424486    -0.39900
O396        O  0.43099785  0.01944449  0.05244887    -0.40000
C397        C  0.24670356  0.19353671  0.25611933    -0.12300
C398        C  0.22108348  0.16538121  0.27077978     0.04700
C399        C  0.19558285  0.13507800  0.25775053    -0.07600
C400        C  0.19543830  0.13437872  0.23084501    -0.08300
C401        C  0.22080010  0.16296180  0.21650899    -0.02900
C402        C  0.24672067  0.19267065  0.22948494     0.03900
N403        N  0.27199524  0.22330117  0.21598376     0.66400
H404        H  0.26683217  0.21720199  0.26522532     0.15300
H405        H  0.17557110  0.11114362  0.22110925     0.15100
N406        N  0.16977205  0.10480152  0.27126178     0.74200
O407        O  0.26535961  0.24721974  0.21135344    -0.39300
O408        O  0.30306730  0.22982072  0.21400096    -0.39200
O409        O  0.13791632  0.09542029  0.26918091    -0.39900
O410        O  0.17786507  0.08346965  0.28011928    -0.40000
C411        C  0.25576552  0.27829383  0.37627529    -0.12300
C412        C  0.28317793  0.28170393  0.39141517     0.04700
C413        C  0.30460914  0.26902741  0.38210000    -0.07600
C414        C  0.29580129  0.24964711  0.35936967    -0.08300
C415        C  0.26637133  0.24337180  0.34557329    -0.02900
C416        C  0.24790776  0.26006215  0.35303852     0.03900
N417        N  0.21826003  0.25464017  0.33875527     0.66400
H418        H  0.23992668  0.28907231  0.38280836     0.15300
H419        H  0.30948296  0.23603026  0.35415597     0.15100
N420        N  0.33244632  0.27148878  0.39708384     0.74200
O421        O  0.18783904  0.23589023  0.34788303    -0.39300
O422        O  0.22219484  0.26504510  0.31587120    -0.39200
O423        O  0.32769795  0.24488916  0.40926368    -0.39900
O424        O  0.36321311  0.29645706  0.39313245    -0.40000
C425        C  0.37790106  0.49134440  0.47781943    -0.12300
C426        C  0.37647359  0.46013945  0.48480001     0.04700
C427        C  0.40735002  0.46173475  0.49296139    -0.07600
C428        C  0.43936969  0.49332892  0.49181269    -0.08300
C429        C  0.43888238  0.02544912  0.48463477    -0.02900
C430        C  0.40760791  0.02230512  0.47542844     0.03900
N431        N  0.40807756  0.05045090  0.46182664     0.66400
H432        H  0.35444947  0.49046045  0.47120852     0.15300
H433        H  0.46316186  0.49345771  0.49644774     0.15100
N434        N  0.40675224  0.43087386  0.50125306     0.74200
O435        O  0.39477460  0.04502753  0.43984325    -0.39300
O436        O  0.41589276  0.07854804  0.47342534    -0.39200
O437        O  0.42315278  0.41936583  0.48858978    -0.39900
O438        O  0.39644674  0.41997238  0.52371335    -0.40000
C439        C  0.11867979  0.09621372  0.37896177    -0.12300
C440        C  0.13217994  0.10954528  0.40339634     0.04700
C441        C  0.16848128  0.12723279  0.40709759    -0.07600
C442        C  0.19049244  0.13324866  0.38620920    -0.08300
C443        C  0.17751624  0.12607788  0.36103451    -0.02900
C444        C  0.14110254  0.10529451  0.35754021     0.03900
N445        N  0.12641583  0.09654821  0.33251513     0.66400
H446        H  0.09065874  0.08157967  0.37613587     0.15300
H447        H  0.21846531  0.14813030  0.38943997     0.15100
N448        N  0.18362365  0.14219920  0.43138006     0.74200
O449        O  0.11373538  0.06556868  0.32437315    -0.39300
O450        O  0.11986104  0.11740870  0.32091295    -0.39200
O451        O  0.17594381  0.12312715  0.45098562    -0.39900
O452        O  0.20406128  0.17488230  0.43338079    -0.40000
C453        C  0.38025132  0.29671325  0.46168677    -0.12300
C454        C  0.37578794  0.31817924  0.47911317     0.04700
C455        C  0.40051566  0.33507249  0.49880255    -0.07600
C456        C  0.43179349  0.33423471  0.49787044    -0.08300
C457        C  0.43768718  0.31557789  0.47862600    -0.02900
C458        C  0.41082781  0.29525409  0.46118867     0.03900
N459        N  0.41541160  0.27591918  0.44109188     0.66400
H460        H  0.36105612  0.28319411  0.44694943     0.15300
H461        H  0.45190947  0.34850297  0.51193519     0.15100
N462        N  0.39383355  0.35183800  0.52002608     0.74200
O463        O  0.39632548  0.24296235  0.44107369    -0.39300
O464        O  0.42925156  0.29133702  0.42030692    -0.39200
O465        O  0.36291230  0.34367033  0.52575266    -0.39900
O466        O  0.41807191  0.37095205  0.53531698    -0.40000
C467        C  0.10816270  0.48516757  0.47979370    -0.12300
C468        C  0.07698232  0.45336556  0.48410185     0.04700
C469        C  0.04659033  0.45411315  0.49071689    -0.07600
C470        C  0.04699080  0.48587379  0.49091913    -0.08300
C471        C  0.07440982  0.01626551  0.48405510    -0.02900
C472        C  0.10865619  0.51722053  0.47993279     0.03900
N473        N  0.13345463  0.04413725  0.46417564     0.66400
H474        H  0.13165073  0.48491677  0.47441095     0.15300
H475        H  0.02270982  0.48532599  0.49482200     0.15100
N476        N  0.01436067  0.42242106  0.49560447     0.74200
O477        O  0.16238496  0.05957014  0.47559610    -0.39300
O478        O  0.13281404  0.04807515  0.44031993    -0.39200
O479        O  0.00817215  0.40934900  0.51776798    -0.39900
O480        O  0.98961913  0.41228659  0.47993071    -0.40000
C481        C  0.49896093  0.12841668  0.34972824    -0.12300
C482        C  0.46340355  0.11803360  0.35078066     0.04700
C483        C  0.44373307  0.10011815  0.37272706    -0.07600
C484        C  0.46059382  0.09793995  0.39445296    -0.08300
C485        C  0.49668348  0.11152428  0.39437776    -0.02900
C486        C  0.01453671  0.12224128  0.37014261     0.03900
N487        N  0.05101498  0.13421852  0.36831353     0.66400
H488        H  0.01270875  0.13834000  0.33168712     0.15300
H489        H  0.44549576  0.08603076  0.41163613     0.15100
N490        N  0.40701112  0.08723482  0.37404671     0.74200
O491        O  0.06084261  0.11555458  0.35682264    -0.39300
O492        O  0.07305291  0.16589155  0.37312013    -0.39200
O493        O  0.38588240  0.05622134  0.36699522    -0.39900
O494        O  0.39581699  0.10375703  0.38690982    -0.40000
C495        C  0.43979829  0.20457044  0.38613342    -0.12300
C496        C  0.44969903  0.21618218  0.36071957     0.04700
C497        C  0.47202099  0.25236320  0.35624376    -0.07600
C498        C  0.98747338  0.27427876  0.37683232    -0.08300
C499        C  0.48161189  0.26209192  0.40210298    -0.02900
C500        C  0.45719097  0.22656605  0.40672492     0.03900
N501        N  0.45204747  0.21170158  0.43177741     0.66400
H502        H  0.42223726  0.17694327  0.39002217     0.15300
H503        H  0.00534226  0.30193415  0.37325232     0.15100
N504        N  0.98424976  0.26485456  0.33084042     0.74200
O505        O  0.42208814  0.19741355  0.44203511    -0.39300
O506        O  0.47426393  0.20470716  0.44031261    -0.39200
O507        O  0.47338413  0.28484955  0.32125961    -0.39900
O508        O  0.01143553  0.26630029  0.32188628    -0.40000
C509        C  0.43253352  0.13791996  0.25791903    -0.12300
C510        C  0.44267577  0.16847325  0.27240900     0.04700
C511        C  0.44865638  0.19895030  0.25936025    -0.07600
C512        C  0.44479935  0.19842199  0.23278361    -0.08300
C513        C  0.43488710  0.16803995  0.21824776    -0.02900
C514        C  0.42850912  0.13736290  0.23124904     0.03900
N515        N  0.91982704  0.10563089  0.21685136     0.66400
H516        H  0.92894239  0.11379498  0.26636034     0.15300
H517        H  0.45005958  0.22244005  0.22348541     0.15100
N518        N  0.45993944  0.23129462  0.27242668     0.74200
O519        O  0.94287899  0.09840564  0.21036068    -0.39300
O520        O  0.88794633  0.08217984  0.21565357    -0.39200
O521        O  0.49173315  0.25497084  0.27091380    -0.39900
O522        O  0.43753494  0.23959964  0.27848905    -0.40000
C523        C  0.28030952  0.45579265  0.37414788    -0.12300
C524        C  0.27048362  0.43673923  0.35114351     0.04700
C525        C  0.27434077  0.40726466  0.34852761    -0.07600
C526        C  0.28430402  0.39524442  0.36974311    -0.08300
C527        C  0.29000768  0.41199561  0.39368377    -0.02900
C528        C  0.28970502  0.44360288  0.39540082     0.03900
N529        N  0.29771173  0.46305045  0.41876659     0.66400
H530        H  0.27758619  0.47864951  0.37634052     0.15300
H531        H  0.28501684  0.37123233  0.36792717     0.15100
N532        N  0.26444834  0.38701996  0.32550638     0.74200
O533        O  0.32897895  0.48619006  0.42332305    -0.39300
O534        O  0.27335893  0.46235653  0.43189307    -0.39200
O535        O  0.28789214  0.38955068  0.31032447    -0.39900
O536        O  0.23343237  0.36197800  0.32297389    -0.40000
C537        C  0.17066369  0.45331577  0.37346161    -0.12300
C538        C  0.16257675  0.43436125  0.35040082     0.04700
C539        C  0.13003387  0.40318748  0.34818403    -0.07600
C540        C  0.10828796  0.38939509  0.36985579    -0.08300
C541        C  0.11879818  0.40607370  0.39388415    -0.02900
C542        C  0.14945168  0.43933992  0.39518681     0.03900
N543        N  0.16024290  0.45868848  0.41861345     0.66400
H544        H  0.19560000  0.47747338  0.37538970     0.15300
H545        H  0.08429653  0.36427311  0.36823526     0.15100
N546        N  0.12060080  0.38321370  0.32502054     0.74200
O547        O  0.18409622  0.45878823  0.43157060    -0.39300
O548        O  0.15118658  0.48087249  0.42352644    -0.39200
O549        O  0.13067289  0.36161345  0.32100487    -0.39900
O550        O  0.09787408  0.38307207  0.31067134    -0.40000
C551        C  0.20726009  0.46274237  0.25480989    -0.12300
C552        C  0.22532569  0.44876126  0.26732207     0.04700
C553        C  0.24640054  0.43983090  0.25235881    -0.07600
C554        C  0.24822662  0.44403047  0.22576235    -0.08300
C555        C  0.22976438  0.45742813  0.21314532    -0.02900
C556        C  0.20952466  0.46745273  0.22813766     0.03900
N557        N  0.19128738  0.48272324  0.21676579     0.66400
H558        H  0.19150352  0.47052846  0.26580508     0.15300
H559        H  0.26399312  0.43611473  0.21491408     0.15100
N560        N  0.26529579  0.42521729  0.26358642     0.74200
O561        O  0.15915712  0.46375921  0.21190535    -0.39300
O562        O  0.20557457  0.51566507  0.21577437    -0.39200
O563        O  0.25254044  0.39245163  0.26294084    -0.39900
O564        O  0.29729282  0.44499318  0.26855393    -0.40000
C565        C  0.27185490  0.30477658  0.55953807    -0.12300
C566        C  0.27147775  0.33218544  0.54643513     0.04700
C567        C  0.27293787  0.36001480  0.56077778    -0.07600
C568        C  0.27557259  0.36035820  0.58740158    -0.08300
C569        C  0.27682226  0.33343832  0.60061057    -0.02900
C570        C  0.27418579  0.30497009  0.58630578     0.03900
N571        N  0.27431924  0.27624795  0.59842784     0.66400
H572        H  0.27042845  0.28297338  0.54894962     0.15300
H573        H  0.27712794  0.38240507  0.59770317     0.15100
N574        N  0.27340538  0.38908104  0.54865132     0.74200
O575        O  0.24565316  0.24908879  0.60405288    -0.39300
O576        O  0.30222210  0.27534208  0.59901633    -0.39200
O577        O  0.24568045  0.39029878  0.54777679    -0.39900
O578        O  0.30231063  0.41619093  0.54342966    -0.40000
C579        C  0.10492549  0.02729788  0.89783709    -0.12300
C580        C  0.10234784  0.99848063  0.88455022     0.04700
C581        C  0.10291074  0.97166561  0.89873117    -0.07600
C582        C  0.10685942  0.97461344  0.92537511    -0.08300
C583        C  0.10991569  0.00369319  0.93874062    -0.02900
C584        C  0.10874999  0.03024452  0.92447792     0.03900
N585        N  0.12523825  0.56818092  0.93541673     0.66400
H586        H  0.10495194  0.04838596  0.88742735     0.15300
H587        H  0.10706866  0.95355363  0.93562669     0.15100
N588        N  0.09859925  0.94072894  0.88654312     0.74200
O589        O  0.14211747  0.08781093  0.93870156    -0.39300
O590        O  0.10382564  0.57857940  0.93886045    -0.39200
O591        O  0.12378533  0.93520954  0.88570168    -0.39900
O592        O  0.06840445  0.91653499  0.88038547    -0.40000
C593        C  0.27516752  0.16377257  0.82073755    -0.12300
C594        C  0.27273348  0.19397575  0.81933821     0.04700
C595        C  0.23925899  0.19030462  0.82029333    -0.07600
C596        C  0.20902819  0.15642196  0.82037437    -0.08300
C597        C  0.21183388  0.12616405  0.81913661    -0.02900
C598        C  0.24547871  0.13027133  0.82026760     0.03900
N599        N  0.25039829  0.10081346  0.81907731     0.66400
H600        H  0.30065676  0.16614483  0.81967289     0.15300
H601        H  0.18350124  0.15386112  0.81918702     0.15100
N602        N  0.23550032  0.22037135  0.81870744     0.74200
O603        O  0.24980395  0.08740322  0.79756342    -0.39300
O604        O  0.26560858  0.09578712  0.83737733    -0.39200
O605        O  0.22865646  0.22882776  0.79747308    -0.39900
O606        O  0.23270636  0.23439578  0.83899989    -0.40000
C607        C  0.40244827  0.27777105  0.89679363    -0.12300
C608        C  0.39140165  0.29834889  0.88417072     0.04700
C609        C  0.37647842  0.31433538  0.89899131    -0.07600
C610        C  0.37234107  0.30892256  0.92556149    -0.08300
C611        C  0.38296742  0.28791912  0.93806181    -0.02900
C612        C  0.39823600  0.27228325  0.92326938     0.03900
N613        N  0.40797102  0.24919404  0.93449992     0.66400
H614        H  0.41359376  0.26481920  0.88596633     0.15300
H615        H  0.36108556  0.32167814  0.93650928     0.15100
N616        N  0.36599831  0.33671933  0.88756759     0.74200
O617        O  0.38526502  0.21721458  0.93742428    -0.39300
O618        O  0.43989165  0.25923098  0.93728022    -0.39200
O619        O  0.33402161  0.32526284  0.88352044    -0.39900
O620        O  0.38757024  0.36920780  0.88596004    -0.40000
C621        C  0.31436271  0.28497583  0.68247477    -0.12300
C622        C  0.28591157  0.28982160  0.68648954     0.04700
C623        C  0.27134744  0.28499353  0.71130948    -0.07600
C624        C  0.28841396  0.28087897  0.73209275    -0.08300
C625        C  0.31946212  0.28035918  0.72860189    -0.02900
C626        C  0.33114705  0.28002885  0.70325006     0.03900
N627        N  0.36156887  0.27764058  0.69828070     0.66400
H628        H  0.32603044  0.28895379  0.66354556     0.15300
H629        H  0.27791293  0.27938517  0.75117252     0.15100
N630        N  0.24145025  0.28838142  0.71602154     0.74200
O631        O  0.35839826  0.24782598  0.69565775    -0.39300
O632        O  0.38939620  0.30447190  0.69085365    -0.39200
O633        O  0.21140282  0.26128228  0.71606795    -0.39900
O634        O  0.24544578  0.31660084  0.72520892    -0.40000
C635        C  0.38696879  0.13504237  0.82603290    -0.12300
C636        C  0.40861371  0.13178135  0.80780509     0.04700
C637        C  0.43335089  0.16168635  0.79405604    -0.07600
C638        C  0.43396874  0.19336414  0.79702429    -0.08300
C639        C  0.41062188  0.19592685  0.81383089    -0.02900
C640        C  0.38868577  0.16732734  0.82968876     0.03900
N641        N  0.36898534  0.17134391  0.84989743     0.66400
H642        H  0.36886197  0.11255807  0.83741314     0.15300
H643        H  0.45081222  0.21518121  0.78461217     0.15100
N644        N  0.45550259  0.15942845  0.77506137     0.74200
O645        O  0.33661578  0.15001146  0.85217360    -0.39300
O646        O  0.38459061  0.19453768  0.86682894    -0.39200
O647        O  0.44519804  0.15243673  0.75221174    -0.39900
O648        O  0.48744630  0.17181921  0.77985533    -0.40000
C649        C  0.21569607  0.47378164  0.78835504    -0.12300
C650        C  0.20747891  0.98295948  0.81254491     0.04700
C651        C  0.23107616  0.99307822  0.83305019    -0.07600
C652        C  0.26269490  0.99303087  0.82978733    -0.08300
C653        C  0.27089798  0.98333313  0.80609848    -0.02900
C654        C  0.24647670  0.47307874  0.78462510     0.03900
N655        N  0.25133745  0.45959668  0.76101834     0.66400
H656        H  0.19714649  0.46562945  0.77283891     0.15300
H657        H  0.28162053  0.00257345  0.84510168     0.15100
N658        N  0.22291052  0.00271654  0.85718221     0.74200
O659        O  0.24565402  0.42865154  0.76024786    -0.39300
O660        O  0.25372782  0.47535691  0.74038387    -0.39200
O661        O  0.20938249  0.98008534  0.87470964    -0.39900
O662        O  0.22316694  0.03119155  0.85946256    -0.40000
C663        C  0.36139304  0.49228515  0.91605600    -0.12300
C664        C  0.38935001  0.02246673  0.93110987     0.04700
C665        C  0.41565166  0.05074444  0.91666879    -0.07600
C666        C  0.41846621  0.04715618  0.89028342    -0.08300
C667        C  0.39529957  0.01605097  0.87734812    -0.02900
C668        C  0.36374434  0.49042625  0.88939206     0.03900
N669        N  0.33370831  0.46477203  0.87579487     0.66400
H670        H  0.33707133  0.47358350  0.92536769     0.15300
H671        H  0.43864075  0.06943630  0.87978047     0.15100
N672        N  0.43887557  0.08397047  0.92812862     0.74200
O673        O  0.32851848  0.43416071  0.87311894    -0.39300
O674        O  0.30931087  0.47056830  0.87110995    -0.39200
O675        O  0.47065429  0.09348823  0.93103070    -0.39900
O676        O  0.42905120  0.10589885  0.93141289    -0.40000
C677        C  0.30582440  0.44122053  0.71091540    -0.12300
C678        C  0.33930044  0.45219033  0.72012516     0.04700
C679        C  0.36114543  0.44284000  0.70702981    -0.07600
C680        C  0.34826918  0.42084441  0.68571064    -0.08300
C681        C  0.31345448  0.40690533  0.67809757    -0.02900
C682        C  0.29243173  0.41802683  0.69027267     0.03900
N683        N  0.25646715  0.40314419  0.68370165     0.66400
H684        H  0.28939542  0.44913121  0.72066005     0.15300
H685        H  0.36409283  0.41125717  0.67700799     0.15100
N686        N  0.39470031  0.45203946  0.71685255     0.74200
O687        O  0.23400700  0.37369145  0.69272312    -0.39300
O688        O  0.24649465  0.42200096  0.67307560    -0.39200
O689        O  0.39646006  0.43562832  0.73588347    -0.39900
O690        O  0.42180831  0.47054941  0.70352779    -0.40000
C691        C  0.98195655  0.33584182  0.69451714    -0.12300
C692        C  0.48993031  0.31356505  0.68378006     0.04700
C693        C  0.47510921  0.27947370  0.69370853    -0.07600
C694        C  0.45608854  0.27111944  0.71676056    -0.08300
C695        C  0.45245361  0.29674588  0.73019666    -0.02900
C696        C  0.46430851  0.32966045  0.71874688     0.03900
N697        N  0.46071213  0.35643472  0.73133830     0.66400
H698        H  0.99334400  0.36211516  0.68675935     0.15300
H699        H  0.44602114  0.24526117  0.72491516     0.15100
N700        N  0.48152364  0.25416788  0.68175680     0.74200
O701        O  0.98354121  0.37722752  0.74410789    -0.39300
O702        O  0.43649470  0.36172222  0.72492504    -0.39200
O703        O  0.50301799  0.24706892  0.69154780    -0.39900
O704        O  0.46110106  0.23442005  0.66458028    -0.40000
C705        C  0.11978360  0.45894795  0.70777936    -0.11100
C706        C  0.12133431  0.44623872  0.73199471     0.04700
C707        C  0.12030863  0.41408819  0.73371007    -0.07600
C708        C  0.11439941  0.39366326  0.71170490    -0.08300
C709        C  0.10789079  0.40399067  0.68798231    -0.02900
C710        C  0.11272062  0.43790901  0.68579454     0.03900
N711        N  0.10638663  0.44959057  0.66212130     0.66400
H712        H  0.12165314  0.48422427  0.70618726     0.15300
H713        H  0.11034400  0.36751174  0.71382264     0.15100
N714        N  0.12261524  0.40062437  0.75793556     0.74200
O715        O  0.07581373  0.44239553  0.65674901    -0.39300
O716        O  0.13188796  0.47196243  0.64890083    -0.39200
O717        O  0.09559397  0.38443745  0.77180743    -0.39900
O718        O  0.14927519  0.39869296  0.76300010    -0.40000
C719        C  0.03131332  0.31510102  0.59142616    -0.12300
C720        C  0.06070086  0.34228925  0.60388970     0.04700
C721        C  0.09066351  0.36423339  0.58882627    -0.07600
C722        C  0.09001197  0.35958357  0.56212184    -0.08300
C723        C  0.06005162  0.33321365  0.54971665    -0.02900
C724        C  0.03074724  0.31031693  0.56490414     0.03900
N725        N  0.00011999  0.28167730  0.55384497     0.66400
H726        H  0.00811854  0.29713703  0.60224329     0.15300
H727        H  0.11297894  0.37734762  0.55099591     0.15100
N728        N  0.12191917  0.39160969  0.60010271     0.74200
O729        O  0.99793656  0.25228058  0.55134919    -0.39300
O730        O  0.97326342  0.28403092  0.55077139    -0.39200
O731        O  0.14660387  0.38633084  0.60500696    -0.39900
O732        O  0.12734481  0.42246382  0.60065073    -0.40000
C733        C  0.13108516  0.12812221  0.70892846    -0.12300
C734        C  0.11235263  0.10765891  0.68773008     0.04700
C735        C  0.10279686  0.07204478  0.68686881    -0.07600
C736        C  0.10985645  0.05705104  0.70782234    -0.08300
C737        C  0.12540334  0.07680648  0.72996442    -0.02900
C738        C  0.13776463  0.11302647  0.72994007     0.03900
N739        N  0.15675370  0.13458309  0.75124811     0.66400
H740        H  0.13839429  0.15547490  0.70991569     0.15300
H741        H  0.10061806  0.02920612  0.70759170     0.15100
N742        N  0.08178293  0.04968632  0.66657717     0.74200
O743        O  0.18694015  0.14015060  0.75605657    -0.39300
O744        O  0.14345490  0.14813375  0.76526211    -0.39200
O745        O  0.09402832  0.03571070  0.65194753    -0.39900
O746        O  0.04935361  0.03841400  0.66658798    -0.40000
C747        C  0.48446700  0.10181532  0.68382893    -0.12300
C748        C  0.01949341  0.12996555  0.69148521     0.04700
C749        C  0.02723222  0.13962200  0.71753729    -0.07600
C750        C  0.49956479  0.12204738  0.73510391    -0.08300
C751        C  0.46727372  0.09305501  0.72873610    -0.02900
C752        C  0.45878993  0.08423999  0.70277070     0.03900
N753        N  0.42545116  0.05549468  0.69560250     0.66400
H754        H  0.47908503  0.09210564  0.66432441     0.15300
H755        H  0.50571756  0.12982940  0.75495588     0.15100
N756        N  0.06145862  0.16626540  0.72523392     0.74200
O757        O  0.42303941  0.02731922  0.68786885    -0.39300
O758        O  0.40040945  0.06065915  0.69197391    -0.39200
O759        O  0.06968133  0.19799665  0.72401506    -0.39900
O760        O  0.08004681  0.15809197  0.73820765    -0.40000
C761        C  0.07659766  0.10720799  0.56382868    -0.12300
C762        C  0.06661724  0.12865892  0.55117549     0.04700
C763        C  0.05663110  0.14879027  0.56625298    -0.07600
C764        C  0.05676325  0.14701628  0.59318397    -0.08300
C765        C  0.06712871  0.12576496  0.60573891    -0.02900
C766        C  0.07684128  0.10551147  0.59059688     0.03900
N767        N  0.08525181  0.08153816  0.60198939     0.66400
H768        H  0.08372474  0.09089722  0.55286049     0.15300
H769        H  0.04956600  0.16312911  0.60432964     0.15100
N770        N  0.53785826  0.16377823  0.55523395     0.74200
O771        O  0.06109080  0.05061520  0.60673626    -0.39300
O772        O  0.11666729  0.08892913  0.60252442    -0.39200
O773        O  0.50497676  0.14919684  0.55484836    -0.39900
O774        O  0.07172248  0.20283220  0.54858786    -0.40000
C775        C  0.07318137  0.63029916  0.63390903     0.80200
N776        N  0.04857246  0.63336069  0.64776875    -0.78100
C777        C  0.04975544  0.63431477  0.67378431     0.82600
N778        N  0.07458167  0.63095683  0.68560635    -0.78100
C779        C  0.09811847  0.62637448  0.67250203     0.82700
N780        N  0.09730468  0.62554667  0.64648536    -0.79800
C781        C  0.05622359  0.84019704  0.63362433     0.80200
N782        N  0.08347552  0.86645846  0.64690969    -0.78100
C783        C  0.08144959  0.86778388  0.67288317     0.82600
N784        N  0.05213899  0.84400668  0.68511504    -0.78100
C785        C  0.02441434  0.81911612  0.67229761     0.82700
N786        N  0.02624100  0.81738817  0.64649645    -0.79800
C787        C  0.44833110  0.95944762  0.79598314     0.80200
N788        N  0.42936852  0.92369697  0.79623561    -0.78100
C789        C  0.44530119  0.90456044  0.79857949     0.82600
N790        N  0.48097337  0.92173652  0.80045339    -0.78100
C791        C  0.50070088  0.95758635  0.79950407     0.82700
N792        N  0.48401849  0.97626642  0.79761064    -0.79800
O793        O  0.32143016  0.50686387  0.77608761    -0.85400
O794        O  0.37390864  0.57221367  0.79294295    -0.82400
C795        C  0.40330885  0.59670406  0.80031332     0.98100
O796        O  0.42982637  0.59298096  0.80000181    -0.82500
O797        O  0.41734211  0.54331454  0.83647393    -0.85100
C798        C  0.39760302  0.51483533  0.84798398     1.02600
O799        O  0.38032798  0.48645404  0.83568593    -0.77900
O800        O  0.32447985  0.98405589  0.81439591    -0.78000
C801        C  0.30808689  0.49315318  0.79735621     1.02600
O802        O  0.36715282  0.00621694  0.74181369    -0.85400
O803        O  0.41678590  0.57454234  0.75129215    -0.82400
C804        C  0.44445139  0.57362869  0.74874798     0.98100
O805        O  0.45217871  0.55756828  0.76482123    -0.82500
O806        O  0.44504638  0.51096009  0.80286597    -0.85100
C807        C  0.42954495  0.97934865  0.79613762     1.02600
O808        O  0.39781953  0.96397535  0.78965507    -0.77900
O809        O  0.34008090  0.95936410  0.76644343    -0.78000
C810        C  0.34868269  0.97355857  0.74441325     1.02500
Cr811      Cr  0.37182358  0.53858601  0.76713875     1.93700
Cr812      Cr  0.43273920  0.54890140  0.80019894     1.93200
Cr813      Cr  0.36293122  0.97697718  0.80092665     1.39100
O814        O  0.38944527  0.52139685  0.78911055    -1.23100
O815        O  0.36849369  0.71613918  0.80389389    -0.85400
O816        O  0.31191707  0.72292940  0.79275908    -0.82400
C817        C  0.30084903  0.72854630  0.81349643     0.98100
O818        O  0.31864877  0.75720856  0.82530862    -0.82500
O819        O  0.37985714  0.81336454  0.84354360    -0.85100
C820        C  0.39569578  0.80041970  0.85514493     1.02600
O821        O  0.41227428  0.78889506  0.84264318    -0.77900
O822        O  0.42460434  0.75345131  0.80403562    -0.78000
C823        C  0.39919935  0.72263642  0.80737193     1.02600
O824        O  0.40331423  0.75525845  0.75814650    -0.85400
O825        O  0.34950128  0.76686186  0.75097082    -0.82400
C826        C  0.33083063  0.78033874  0.75458167     0.98100
O827        O  0.32875362  0.79161068  0.77663341    -0.82500
O828        O  0.39195724  0.84861488  0.79446145    -0.85100
C829        C  0.42382229  0.86547930  0.80093308     1.02600
O830        O  0.43748891  0.84920605  0.81043542    -0.77900
O831        O  0.43870539  0.80971541  0.76983523    -0.78000
C832        C  0.42853164  0.78566930  0.75328322     1.02500
Cr833      Cr  0.36000792  0.74335093  0.77817730     1.93700
Cr834      Cr  0.35677246  0.80136338  0.80900462     1.93200
Cr835      Cr  0.42478008  0.79898189  0.80611146     1.39100
O836        O  0.38026249  0.78137192  0.79775884    -1.23100
O837        O  0.18574648  0.58477298  0.79483813    -0.85400
O838        O  0.18883107  0.52613257  0.80804032    -0.82400
C839        C  0.18114079  0.49480598  0.81061429     0.98100
O840        O  0.14759752  0.96561150  0.80831723    -0.82500
O841        O  0.10996628  0.97881101  0.84395210    -0.85100
C842        C  0.10082575  0.50086822  0.85544567     1.02600
O843        O  0.09189177  0.51987844  0.84338511    -0.77900
O844        O  0.14957096  0.57962719  0.82546690    -0.78000
C845        C  0.17889167  0.59688678  0.81449951     1.02600
O846        O  0.14409202  0.54733045  0.75200355    -0.85400
O847        O  0.15006142  0.98459031  0.76142316    -0.82400
C848        C  0.12010657  0.95941071  0.75610062     0.98100
O849        O  0.09446932  0.95185450  0.77079018    -0.82500
O850        O  0.05333688  0.95806722  0.80881278    -0.85100
C851        C  0.03957944  0.97535190  0.80114967     1.02600
O852        O  0.05900121  0.50894085  0.79369232    -0.77900
O853        O  0.11840424  0.56965478  0.77532477    -0.78000
C854        C  0.13020517  0.56583419  0.75396506     1.02500
Cr855      Cr  0.16476276  0.53618182  0.78064954     1.93700
Cr856      Cr  0.10276596  0.96712711  0.80729317     1.93200
Cr857      Cr  0.10617998  0.54221526  0.80849956     1.39100
O858        O  0.12499801  0.51674520  0.79856913    -1.23100
C859        C  0.26640357  0.83290733  0.63435982     0.80200
N860        N  0.26248245  0.80658962  0.65019810    -0.78100
C861        C  0.26609734  0.81214803  0.67600458     0.82600
N862        N  0.27500961  0.84397820  0.68533471    -0.78100
C863        C  0.28052901  0.87047517  0.66996287     0.82700
N864        N  0.27665265  0.86520148  0.64440088    -0.79800
C865        C  0.22347340  0.94096481  0.29865403     0.80200
N866        N  0.19491993  0.93783535  0.31150853    -0.78100
C867        C  0.19251969  0.93389960  0.33742428     0.82600
N868        N  0.21810883  0.93283622  0.35011937    -0.78100
C869        C  0.24606085  0.93531752  0.33791880     0.82700
N870        N  0.24886910  0.93926937  0.31207991    -0.79800
C871        C  0.44418864  0.66534350  0.30151099     0.80200
N872        N  0.44276467  0.68978334  0.31683202    -0.78100
C873        C  0.44437463  0.68790656  0.34268236     0.82600
N874        N  0.44802751  0.66223389  0.35291423    -0.78100
C875        C  0.45053653  0.63850919  0.33845526     0.82700
N876        N  0.44929647  0.64026115  0.31251884    -0.79800
C877        C  0.11291295  0.78394379  0.46559826     0.80200
N878        N  0.09603645  0.74807948  0.46650927    -0.78100
C879        C  0.11438059  0.73097326  0.46683375     0.82600
N880        N  0.15000580  0.75036387  0.46682726    -0.78100
C881        C  0.16740171  0.78618655  0.46553309     0.82700
N882        N  0.14864588  0.80278497  0.46489305    -0.79800
O883        O  0.49290505  0.84946008  0.46948785    -0.85400
O884        O  0.05556715  0.90632288  0.45580410    -0.82400
C885        C  0.06990546  0.91830077  0.47708702     0.98100
O886        O  0.08135786  0.90235023  0.48992720    -0.82500
O887        O  0.08314549  0.84594340  0.50973819    -0.85100
C888        C  0.05480733  0.82897952  0.52233793     1.02600
O889        O  0.02634686  0.81059757  0.51079989    -0.77900
O890        O  0.47573187  0.79391909  0.47411112    -0.78000
C891        C  0.46959790  0.81882846  0.47549800     1.02600
O892        O  0.99635992  0.81163114  0.42606248    -0.85400
O893        O  0.06230421  0.86570526  0.41604973    -0.82400
C894        C  0.09456802  0.88665337  0.41878581     0.98100
O895        O  0.10802757  0.89345303  0.44098836    -0.82500
O896        O  0.10633654  0.83412089  0.46084017    -0.85100
C897        C  0.09263477  0.80238298  0.46760285     1.02600
O898        O  0.06203436  0.78643227  0.47717351    -0.77900
O899        O  0.01481895  0.77712676  0.43950214    -0.78000
C900        C  0.99808675  0.78420508  0.42369433     1.02500
Cr901      Cr  0.02833565  0.85682468  0.44364093     1.93700
Cr902      Cr  0.09127709  0.86679116  0.47445333     1.93200
Cr903      Cr  0.02193730  0.79551878  0.47477839     1.39100
O904        O  0.04747343  0.83960395  0.46411881    -1.23100
O905        O  0.04339858  0.54195911  0.47111432    -0.85400
O906        O  0.48928498  0.54980813  0.45466216    -0.82400
C907        C  0.47600587  0.55317275  0.47513889     0.98100
O908        O  0.49259616  0.58032050  0.48858159    -0.82500
O909        O  0.04837478  0.63642484  0.51025900    -0.85100
C910        C  0.06692281  0.62735805  0.52272700     1.02600
O911        O  0.08577320  0.61772585  0.51137273    -0.77900
O912        O  0.09923647  0.57922457  0.47647670    -0.78000
C913        C  0.07322312  0.54806695  0.47772968     1.02600
O914        O  0.08445027  0.58073390  0.42791834    -0.85400
O915        O  0.03446768  0.59644475  0.41579955    -0.82400
C916        C  0.01428277  0.60844486  0.41759717     0.98100
O917        O  0.00651965  0.61606181  0.43935921    -0.82500
O918        O  0.06408912  0.67360134  0.46184659    -0.85100
C919        C  0.09573533  0.69162807  0.46839631     1.02600
O920        O  0.11143891  0.67647275  0.47677009    -0.77900
O921        O  0.11869211  0.63511959  0.43985101    -0.78000
C922        C  0.11185074  0.61008309  0.42482805     1.02500
Cr923      Cr  0.03921036  0.57031045  0.44407270     1.93700
Cr924      Cr  0.03005491  0.62516746  0.47406211     1.93200
Cr925      Cr  0.10028857  0.62584656  0.47525979     1.39100
O926        O  0.05658166  0.60749070  0.46454186    -1.23100
O927        O  0.35201905  0.91248560  0.46099294    -0.85400
O928        O  0.35376559  0.85395303  0.47641079    -0.82400
C929        C  0.34482035  0.82248997  0.48060503     0.98100
O930        O  0.31392884  0.79831661  0.47578762    -0.82500
O931        O  0.27576988  0.81146667  0.51165503    -0.85100
C932        C  0.26571700  0.83009876  0.52317381     1.02600
O933        O  0.25835606  0.85004618  0.51075002    -0.77900
O934        O  0.31710225  0.90945871  0.49195468    -0.78000
C935        C  0.34630792  0.92550150  0.48051800     1.02600
O936        O  0.30970047  0.87502320  0.41922095    -0.85400
O937        O  0.31831798  0.81959406  0.42964149    -0.82400
C938        C  0.28799442  0.79736597  0.42233138     0.98100
O939        O  0.26236075  0.78795160  0.43747643    -0.82500
O940        O  0.22084685  0.79057385  0.47629225    -0.85100
C941        C  0.20633398  0.80635556  0.46757754     1.02600
O942        O  0.22467449  0.83845571  0.46159615    -0.77900
O943        O  0.28437004  0.89800112  0.44228703    -0.78000
C944        C  0.29548653  0.89340175  0.42090289     1.02500
Cr945      Cr  0.33022875  0.86378403  0.44826194     1.93700
Cr946      Cr  0.26989729  0.80061940  0.47457118     1.93200
Cr947      Cr  0.27259407  0.87183375  0.47581907     1.39100
O948        O  0.29072623  0.84573789  0.46638975    -1.23100
C949        C  0.22416425  0.67999420  0.29949639     0.80200
N950        N  0.24672609  0.71271663  0.30906685    -0.78100
C951        C  0.24886743  0.71825171  0.33465786     0.82600
N952        N  0.22854350  0.69173912  0.35037378    -0.78100
C953        C  0.20559283  0.65942774  0.34176703     0.82700
N954        N  0.20290105  0.65332812  0.31599937    -0.79800
C955        C  0.38486671  0.51934373  0.95884351     0.80200
N956        N  0.35531694  0.00169232  0.97178120    -0.78100
C957        C  0.35256197  0.00452045  0.99754987     0.82600
N958        N  0.37622229  0.52212459  0.01005918    -0.78100
C959        C  0.40646783  0.54605863  0.99896822     0.82700
N960        N  0.41069586  0.54522279  0.97326930    -0.79800
C961        C  0.38307134  0.78139308  0.96569176     0.80200
N962        N  0.35705499  0.78400826  0.97792319    -0.78100
C963        C  0.35347432  0.78044957  0.00374549     0.82600
N964        N  0.37472121  0.77316869  0.01689725    -0.78100
C965        C  0.39915371  0.76865955  0.00525596     0.82700
N966        N  0.40371982  0.77287110  0.97949926    -0.79800
C967        C  0.27549657  0.61455980  0.13167454     0.80200
N968        N  0.31115839  0.63206326  0.13330757    -0.78100
C969        C  0.32896338  0.61439840  0.13319691     0.82600
N970        N  0.31061864  0.57875004  0.13143392    -0.78100
C971        C  0.27499865  0.56059813  0.12974866     0.82700
N972        N  0.25755041  0.57868258  0.13012642    -0.79800
O973        O  0.01573423  0.73245718  0.13653133    -0.85400
O974        O  0.00544835  0.67001725  0.11587364    -0.82400
C975        C  0.00811164  0.65844397  0.13697367     0.98100
O976        O  0.98235701  0.64603384  0.15224926    -0.82500
O977        O  0.42518234  0.64124655  0.17691675    -0.85100
C978        C  0.43468106  0.66857057  0.19028311     1.02600
O979        O  0.44212170  0.69728271  0.17991444    -0.77900
O980        O  0.97891490  0.75038186  0.14520176    -0.78000
C981        C  0.00976786  0.75547425  0.14548794     1.02600
O982        O  0.47536856  0.73621353  0.09664885    -0.85400
O983        O  0.45762717  0.66918183  0.08171113    -0.82400
C984        C  0.44712061  0.63685822  0.08292474     0.98100
O985        O  0.44204011  0.62166672  0.10453903    -0.82500
O986        O  0.38553466  0.61971660  0.12987139    -0.85100
C987        C  0.36785183  0.63377847  0.13632218     1.02600
O988        O  0.38282938  0.66430943  0.14590498    -0.77900
O989        O  0.42141176  0.71269853  0.10915229    -0.78000
C990        C  0.44483838  0.72940718  0.09251865     1.02500
Cr991      Cr  0.98585598  0.70034126  0.10947478     1.93700
Cr992      Cr  0.43490499  0.63549844  0.14019464     1.93200
Cr993      Cr  0.43259251  0.70436502  0.14418136     1.39100
O994        O  0.45063985  0.67977825  0.13149087    -1.23100
O995        O  0.21037441  0.87399399  0.13574151    -0.85400
O996        O  0.15196237  0.87693829  0.12384207    -0.82400
C997        C  0.13978763  0.88125199  0.14454437     0.98100
O998        O  0.15593826  0.90972365  0.15669044    -0.82500
O999        O  0.21381956  0.96825796  0.17573103    -0.85100
C1000       C  0.23193133  0.95807405  0.18750484     1.02600
O1001       O  0.25041078  0.94861153  0.17511390    -0.77900
O1002       O  0.26576254  0.91373142  0.13757619    -0.78000
C1003       C  0.24123773  0.88233072  0.14109734     1.02600
O1004       O  0.24501623  0.91441503  0.09010420    -0.85400
O1005       O  0.18889994  0.92285337  0.08257084    -0.82400
C1006       C  0.16884910  0.93488007  0.08590637     0.98100
O1007       O  0.16417810  0.94390814  0.10808910    -0.82500
O1008       O  0.22375690  0.00326191  0.12698758    -0.85100
C1009       C  0.25541816  0.02193696  0.13340712     1.02600
O1010       O  0.27160746  0.00743355  0.14178371    -0.77900
O1011       O  0.27703715  0.96919954  0.10182285    -0.78000
C1012       C  0.26810769  0.94566649  0.08493317     1.02500
Cr1013     Cr  0.20056099  0.90011087  0.10980309     1.93700
Cr1014     Cr  0.19169624  0.95496623  0.14084864     1.93200
Cr1015     Cr  0.26283766  0.95820277  0.13834959     1.39100
O1016       O  0.21816492  0.93792102  0.12971706    -1.23100
O1017       O  0.16617022  0.69110891  0.13906277    -0.85400
O1018       O  0.22846382  0.74499229  0.12266658    -0.82400
C1019       C  0.24293584  0.75617194  0.14395397     0.98100
O1020       O  0.25289747  0.73872931  0.15655235    -0.82500
O1021       O  0.25156453  0.68041578  0.17556067    -0.85100
C1022       C  0.22357531  0.66533528  0.18867493     1.02600
O1023       O  0.19437214  0.64771400  0.17783982    -0.77900
O1024       O  0.14256473  0.63458149  0.14280307    -0.78000
C1025       C  0.13980221  0.66172110  0.14376765     1.02600
O1026       O  0.16254560  0.65140345  0.09403620    -0.85400
O1027       O  0.22960803  0.70216712  0.08269404    -0.82400
C1028       C  0.26197706  0.72292919  0.08500488     0.98100
O1029       O  0.27639601  0.72791612  0.10680666    -0.82500
O1030       O  0.27172274  0.66639248  0.12658292    -0.85100
C1031       C  0.25648542  0.63450115  0.13342312     1.02600
O1032       O  0.22566007  0.61982379  0.14279727    -0.77900
O1033       O  0.17769694  0.61373855  0.10622584    -0.78000
C1034       C  0.16283139  0.62338182  0.09052599     1.02500
Cr1035     Cr  0.19791736  0.69562391  0.11124398     1.93700
Cr1036     Cr  0.25975869  0.70131410  0.14044534     1.93200
Cr1037     Cr  0.18747649  0.63232810  0.14171111     1.39100
O1038       O  0.21548149  0.67607499  0.13074673    -1.23100
C1039       C  0.11251882  0.50659045  0.96648795     0.80200
N1040       N  0.11524306  0.97917711  0.98009864    -0.78100
C1041       C  0.11661465  0.97979954  0.00614224     0.82600
N1042       N  0.11607825  0.50502867  0.01807168    -0.78100
C1043       C  0.11352633  0.53098976  0.00712373     0.82700
N1044       N  0.11201736  0.53215178  0.98112690    -0.79800
C1045       C  0.15793908  0.61517236  0.04344150    -0.12300
C1046       C  0.14503240  0.60191554  0.06799975     0.04700
C1047       C  0.11530844  0.56841402  0.07060765    -0.07600
C1048       C  0.10097844  0.54743507  0.04894112    -0.08300
C1049       C  0.11686955  0.55870764  0.02468383    -0.02900
C1050       C  0.14421355  0.59370212  0.02174660     0.03900
N1051       N  0.16068161  0.60662384  0.99745649     0.66400
H1052       H  0.18021887  0.64147509  0.04127244     0.15300
H1053       H  0.07971424  0.52065484  0.05152878     0.15100
N1054       N  0.10049585  0.55471615  0.09524067     0.74200
O1055       O  0.15246043  0.62512351  0.98436105    -0.39300
O1056       O  0.18789536  0.60579414  0.99168888    -0.39200
O1057       O  0.07380493  0.55547950  0.10272845    -0.39900
O1058       O  0.10995752  0.53635631  0.10723359    -0.40000
C1059       C  0.22089279  0.82467950  0.16204502    -0.12300
C1060       C  0.24793794  0.85406532  0.14951434     0.04700
C1061       C  0.27781150  0.85273497  0.14182147    -0.07600
C1062       C  0.27783103  0.82104025  0.14364257    -0.08300
C1063       C  0.24844082  0.79041226  0.15275371    -0.02900
C1064       C  0.22036067  0.79280594  0.16313022     0.03900
N1065       N  0.18968253  0.76237953  0.17260269     0.66400
H1066       H  0.19903800  0.82593714  0.16978324     0.15300
H1067       H  0.29973119  0.81961320  0.13590914     0.15100
N1068       N  0.30658844  0.88184690  0.12943663     0.74200
O1069       O  0.18931228  0.75200720  0.19509766    -0.39300
O1070       O  0.16125628  0.75061632  0.16076821    -0.39200
O1071       O  0.33052119  0.90561865  0.14277669    -0.39900
O1072       O  0.31210091  0.87957120  0.10599382    -0.40000
C1073       C  0.16623361  0.94419294  0.03899505    -0.12300
C1074       C  0.15061835  0.93837138  0.06347930     0.04700
C1075       C  0.11849084  0.93735620  0.06611701    -0.07600
C1076       C  0.10452807  0.94535124  0.04519854    -0.08300
C1077       C  0.12252759  0.95572755  0.02168673    -0.02900
C1078       C  0.15267352  0.95328700  0.01818617     0.03900
N1079       N  0.17216041  0.96415295  0.99474205     0.66400
H1080       H  0.19062806  0.94451120  0.03643814     0.15300
H1081       H  0.08120775  0.94700399  0.04812353     0.15100
N1082       N  0.10047902  0.92996572  0.09015886     0.74200
O1083       O  0.19362593  0.99626795  0.99087506    -0.39300
O1084       O  0.17217042  0.94151913  0.97996354    -0.39200
O1085       O  0.10261161  0.95488950  0.10342222    -0.39900
O1086       O  0.07681564  0.89893954  0.09519223    -0.40000
C1087       C  0.10317536  0.68525240  0.13088252    -0.12300
C1088       C  0.10564951  0.66020266  0.14540034     0.04700
C1089       C  0.07585971  0.63518886  0.15922578    -0.07600
C1090       C  0.04408946  0.63531185  0.15756059    -0.08300
C1091       C  0.04179951  0.66003878  0.14209002    -0.02900
C1092       C  0.07236879  0.68569606  0.12923232     0.03900
N1093       N  0.07280113  0.71250628  0.11382592     0.66400
H1094       H  0.12540900  0.70464442  0.11984816     0.15300
H1095       H  0.02113612  0.61561183  0.16775026     0.15100
N1096       N  0.07768418  0.61034302  0.17540279     0.74200
O1097       O  0.08466182  0.74276797  0.12313846    -0.39300
O1098       O  0.07021159  0.70860791  0.08983663    -0.39200
O1099       O  0.08616896  0.61796182  0.19854898    -0.39900
O1100       O  0.06558477  0.57920408  0.16781324    -0.40000
C1101       C  0.07017823  0.78958517  0.16154943    -0.12300
C1102       C  0.04009379  0.78947137  0.15370365     0.04700
C1103       C  0.04228489  0.82199433  0.14923845    -0.07600
C1104       C  0.07517125  0.85310588  0.14913151    -0.08300
C1105       C  0.10575487  0.85216554  0.15360849    -0.02900
C1106       C  0.10277750  0.82036547  0.16112935     0.03900
N1107       N  0.13308214  0.81809106  0.16557336     0.66400
H1108       H  0.06890967  0.76508975  0.16595390     0.15300
H1109       H  0.07704925  0.87751217  0.14355963     0.15100
N1110       N  0.01207192  0.82357306  0.14248622     0.74200
O1111       O  0.14334606  0.81980215  0.18825079    -0.39300
O1112       O  0.14339720  0.80543024  0.14823783    -0.39200
O1113       O  0.99371077  0.82638630  0.15986555    -0.39900
O1114       O  0.00727113  0.82825408  0.11945313    -0.40000
C1115       C  0.27093651  0.72825785  0.03761081    -0.12300
C1116       C  0.28242276  0.74277358  0.06213570     0.04700
C1117       C  0.31227868  0.77667355  0.06402518    -0.07600
C1118       C  0.33141283  0.79366881  0.04198495    -0.08300
C1119       C  0.32327250  0.77635688  0.01829181    -0.02900
C1120       C  0.29125294  0.74467399  0.01575152     0.03900
N1121       N  0.28174512  0.72637573  0.99186324     0.66400
H1122       H  0.24742027  0.70282915  0.03554409     0.15300
H1123       H  0.35606774  0.81807507  0.04417054     0.15100
N1124       N  0.32486318  0.79364228  0.08815589     0.74200
O1125       O  0.29095743  0.70436379  0.98670489    -0.39300
O1126       O  0.26023276  0.72860384  0.97760072    -0.39200
O1127       O  0.34376168  0.78609745  0.10134133    -0.39900
O1128       O  0.32583543  0.82217355  0.09238996    -0.40000
C1129       C  0.40239920  0.71637214  0.05847189    -0.12300
C1130       C  0.43612020  0.73848660  0.06767752     0.04700
C1131       C  0.46036282  0.76734797  0.05253658    -0.07600
C1132       C  0.44931586  0.77485322  0.02957015    -0.08300
C1133       C  0.41491884  0.75350640  0.02123636    -0.02900
C1134       C  0.39184928  0.72321006  0.03537785     0.03900
N1135       N  0.35618445  0.70128639  0.02789141     0.66400
H1136       H  0.38376962  0.69361932  0.06941693     0.15300
H1137       H  0.46677616  0.79881099  0.01932694     0.15100
N1138       N  0.49515163  0.79093189  0.06112074     0.74200
O1139       O  0.34867305  0.67916179  0.01016366    -0.39300
O1140       O  0.33201165  0.70041127  0.04138414    -0.39200
O1141       O  0.01788770  0.78315878  0.05880192    -0.39900
O1142       O  0.00312613  0.82256758  0.06481177    -0.40000
C1143       C  0.31617593  0.95130440  0.02252425    -0.12300
C1144       C  0.32068218  0.98251860  0.01249439     0.04700
C1145       C  0.30380504  0.99852662  0.02454357    -0.07600
C1146       C  0.28527720  0.98477565  0.04742500    -0.08300
C1147       C  0.28338962  0.95528418  0.05882390    -0.02900
C1148       C  0.29777301  0.93749906  0.04559077     0.03900
N1149       N  0.29810850  0.90830822  0.05668909     0.66400
H1150       H  0.33005664  0.93955589  0.01383179     0.15300
H1151       H  0.27389992  0.99839941  0.05708310     0.15100
N1152       N  0.30064660  0.51909922  0.00886477     0.74200
O1153       O  0.27020257  0.87889367  0.05756378    -0.39300
O1154       O  0.32701137  0.90969765  0.05919575    -0.39200
O1155       O  0.27615213  0.51543271  0.99473435    -0.39900
O1156       O  0.32327863  0.54934548  0.01644314    -0.40000
C1157       C  0.43048271  0.60629065  0.01355006    -0.12300
C1158       C  0.43089612  0.57502069  0.01525498     0.04700
C1159       C  0.44120664  0.56664004  0.03824932    -0.07600
C1160       C  0.44683158  0.58737413  0.06000476    -0.08300
C1161       C  0.44323331  0.61705848  0.05903571    -0.02900
C1162       C  0.43644578  0.62731644  0.03521757     0.03900
N1163       N  0.43108950  0.65637716  0.03335200     0.66400
H1164       H  0.42137625  0.61224760  0.99618834     0.15300
H1165       H  0.45331562  0.57976638  0.07784942     0.15100
N1166       N  0.44272627  0.53520262  0.04018020     0.74200
O1167       O  0.95731645  0.68568630  0.02602615    -0.39300
O1168       O  0.40035813  0.65100496  0.03416068    -0.39200
O1169       O  0.46092877  0.52939861  0.02441477    -0.39900
O1170       O  0.42446051  0.51234759  0.05675299    -0.40000
C1171       C  0.25255086  0.69875367  0.25656020    -0.12300
C1172       C  0.22364134  0.67436091  0.27124273     0.04700
C1173       C  0.19522117  0.64634053  0.25833857    -0.07600
C1174       C  0.19610603  0.64356705  0.23161669    -0.08300
C1175       C  0.22483396  0.66821455  0.21704831    -0.02900
C1176       C  0.25332691  0.69610757  0.22988555     0.03900
N1177       N  0.28244248  0.72322541  0.21612544     0.66400
H1178       H  0.27480717  0.72059482  0.26574248     0.15300
H1179       H  0.17380561  0.62204816  0.22220012     0.15100
N1180       N  0.16451609  0.62117118  0.27169343     0.74200
O1181       O  0.28213448  0.75051488  0.20984505    -0.39300
O1182       O  0.31070548  0.72302767  0.21482247    -0.39200
O1183       O  0.13762563  0.62389207  0.27098319    -0.39900
O1184       O  0.16123877  0.59198311  0.27727626    -0.40000
C1185       C  0.25542964  0.78107507  0.38145390    -0.12300
C1186       C  0.28296665  0.78353953  0.39594248     0.04700
C1187       C  0.30597039  0.77410290  0.38454009    -0.07600
C1188       C  0.29867178  0.75866098  0.36017158    -0.08300
C1189       C  0.26882853  0.75258865  0.34693087    -0.02900
C1190       C  0.24886982  0.76666063  0.35675027     0.03900
N1191       N  0.21870501  0.76154661  0.34326133     0.66400
H1192       H  0.23854614  0.78976398  0.38954273     0.15300
H1193       H  0.31361518  0.74709744  0.35318559     0.15100
N1194       N  0.33403686  0.77565828  0.39871559     0.74200
O1195       O  0.18913776  0.74681079  0.35418283    -0.39300
O1196       O  0.22108477  0.76919491  0.31980559    -0.39200
O1197       O  0.32928435  0.74865147  0.41029333    -0.39900
O1198       O  0.36477491  0.80089225  0.39517021    -0.40000
C1199       C  0.37589754  0.99011912  0.47765822    -0.12300
C1200       C  0.37480600  0.96066237  0.48839060     0.04700
C1201       C  0.40566642  0.96456739  0.49891567    -0.07600
C1202       C  0.43721188  0.99676500  0.49715789    -0.08300
C1203       C  0.44128509  0.52402391  0.48308890    -0.02900
C1204       C  0.40999687  0.52334629  0.47712144     0.03900
N1205       N  0.41065450  0.55425082  0.46856988     0.66400
H1206       H  0.35254172  0.98730926  0.46908087     0.15300
H1207       H  0.46107846  0.99847071  0.50376418     0.15100
N1208       N  0.40610837  0.93500939  0.50906258     0.74200
O1209       O  0.39764006  0.55414091  0.44719309    -0.39300
O1210       O  0.41699987  0.57834577  0.48442904    -0.39200
O1211       O  0.41902031  0.92035423  0.49585552    -0.39900
O1212       O  0.40011394  0.92812725  0.53260362    -0.40000
C1213       C  0.12333352  0.60158564  0.37942141    -0.12300
C1214       C  0.13624731  0.61460794  0.40397520     0.04700
C1215       C  0.17252092  0.63396243  0.40783835    -0.07600
C1216       C  0.19499214  0.64220623  0.38690764    -0.08300
C1217       C  0.18217687  0.63454981  0.36166756    -0.02900
C1218       C  0.14601085  0.61190928  0.35813228     0.03900
N1219       N  0.13151935  0.60185004  0.33317499     0.66400
H1220       H  0.09537588  0.58584963  0.37642759     0.15300
H1221       H  0.22284378  0.65845319  0.39026888     0.15100
N1222       N  0.18693060  0.64788619  0.43249718     0.74200
O1223       O  0.12415276  0.57218718  0.32461512    -0.39300
O1224       O  0.11786639  0.61775906  0.32307989    -0.39200
O1225       O  0.17993314  0.62772418  0.45139090    -0.39900
O1226       O  0.20600843  0.68060059  0.43556145    -0.40000
C1227       C  0.37451552  0.79056801  0.46872654    -0.12300
C1228       C  0.37191095  0.81354775  0.48585426     0.04700
C1229       C  0.39874250  0.83198777  0.50382123    -0.07600
C1230       C  0.43023779  0.83195563  0.50104059    -0.08300
C1231       C  0.43433767  0.81220034  0.48169850    -0.02900
C1232       C  0.40535142  0.78959068  0.46652659     0.03900
N1233       N  0.40761184  0.76795179  0.44711226     0.66400
H1234       H  0.35363241  0.77557162  0.45533678     0.15300
H1235       H  0.45170186  0.84742232  0.51389492     0.15100
N1236       N  0.39351391  0.84879890  0.52558335     0.74200
O1237       O  0.38625237  0.73535582  0.44771315    -0.39300
O1238       O  0.42333880  0.78178208  0.42640053    -0.39200
O1239       O  0.36465956  0.83339397  0.53750238    -0.39900
O1240       O  0.41935959  0.87462834  0.53604769    -0.40000
C1241       C  0.10400716  0.98305757  0.47717425    -0.12300
C1242       C  0.07431619  0.95222274  0.48552284     0.04700
C1243       C  0.04570330  0.95413280  0.49537755    -0.07600
C1244       C  0.04593795  0.98590723  0.49459846    -0.08300
C1245       C  0.07726870  0.51755190  0.48426722    -0.02900
C1246       C  0.10431818  0.01489233  0.47621653     0.03900
N1247       N  0.14041918  0.54844149  0.47318145     0.66400
H1248       H  0.12592946  0.98179919  0.46917253     0.15300
H1249       H  0.02287417  0.98632351  0.50101803     0.15100
N1250       N  0.01509406  0.92341675  0.50445548     0.74200
O1251       O  0.16097014  0.56718091  0.49065879    -0.39300
O1252       O  0.15145239  0.55262918  0.45036753    -0.39200
O1253       O  0.01342152  0.91443231  0.52754092    -0.39900
O1254       O  0.98750942  0.91039055  0.49142946    -0.40000
C1255       C  0.49661444  0.62619754  0.34995189    -0.12300
C1256       C  0.46140012  0.61682450  0.35221046     0.04700
C1257       C  0.44284937  0.59993292  0.37480459    -0.07600
C1258       C  0.46062783  0.59737350  0.39579348    -0.08300
C1259       C  0.49657916  0.61017948  0.39453803    -0.02900
C1260       C  0.01571880  0.62503279  0.37114820     0.03900
N1261       N  0.05277857  0.64007042  0.36985483     0.66400
H1262       H  0.01359145  0.64331256  0.33356396     0.15300
H1263       H  0.44639420  0.58606559  0.41342047     0.15100
N1264       N  0.40657301  0.58860856  0.37760683     0.74200
O1265       O  0.06550311  0.62497781  0.35697243    -0.39300
O1266       O  0.07257776  0.67105780  0.37759709    -0.39200
O1267       O  0.38402873  0.55724991  0.37237504    -0.39900
O1268       O  0.39757374  0.60688480  0.39058797    -0.40000
C1269       C  0.43675309  0.70416481  0.38588985    -0.12300
C1270       C  0.44810757  0.71537684  0.36064826     0.04700
C1271       C  0.47213356  0.75118956  0.35615865    -0.07600
C1272       C  0.98595696  0.77318845  0.37746503    -0.08300
C1273       C  0.48011622  0.76091805  0.40215843    -0.02900
C1274       C  0.45403982  0.72581028  0.40667314     0.03900
N1275       N  0.44651956  0.71091593  0.43187588     0.66400
H1276       H  0.41788288  0.67679873  0.38959944     0.15300
H1277       H  0.00484540  0.80062530  0.37398530     0.15100
N1278       N  0.98265393  0.76377205  0.33135441     0.74200
O1279       O  0.41512423  0.69254043  0.43922326    -0.39300
O1280       O  0.46967161  0.70808032  0.44355007    -0.39200
O1281       O  0.47557667  0.78440204  0.32092543    -0.39900
O1282       O  0.00959616  0.76481293  0.32227278    -0.40000
C1283       C  0.44454889  0.64196678  0.25770864    -0.12300
C1284       C  0.44120505  0.66642145  0.27300436     0.04700
C1285       C  0.43550725  0.69141856  0.26049903    -0.07600
C1286       C  0.43350006  0.69146252  0.23374391    -0.08300
C1287       C  0.43673761  0.66699605  0.21862471    -0.02900
C1288       C  0.44259534  0.64215832  0.23091855     0.03900
N1289       N  0.94389407  0.61513136  0.21666742     0.66400
H1290       H  0.94551051  0.62039833  0.26654687     0.15300
H1291       H  0.42898955  0.71076710  0.22474847     0.15100
N1292       N  0.43177581  0.71722090  0.27438888     0.74200
O1293       O  0.97381794  0.62227822  0.20894936    -0.39300
O1294       O  0.91889621  0.58379366  0.21604964    -0.39200
O1295       O  0.45507969  0.74911466  0.27216520    -0.39900
O1296       O  0.40223321  0.70929645  0.28349967    -0.40000
C1297       C  0.28132065  0.95226902  0.37654323    -0.12300
C1298       C  0.27138467  0.93233523  0.35396667     0.04700
C1299       C  0.27572241  0.90307788  0.35208571    -0.07600
C1300       C  0.28582702  0.89188652  0.37374975    -0.08300
C1301       C  0.29132416  0.90938738  0.39737269    -0.02900
C1302       C  0.29085517  0.94095044  0.39820590     0.03900
N1303       N  0.29906011  0.96141789  0.42105307     0.66400
H1304       H  0.27838250  0.97505687  0.37815115     0.15300
H1305       H  0.28683050  0.86798437  0.37253551     0.15100
N1306       N  0.26648839  0.88243546  0.32927103     0.74200
O1307       O  0.32938944  0.98761573  0.42354019    -0.39300
O1308       O  0.27459114  0.95884435  0.43511340    -0.39200
O1309       O  0.29026392  0.88600795  0.31399120    -0.39900
O1310       O  0.23591012  0.85655565  0.32683686    -0.40000
C1311       C  0.17062083  0.94843050  0.37590418    -0.12300
C1312       C  0.16257630  0.92899440  0.35308487     0.04700
C1313       C  0.12943718  0.89861844  0.35064155    -0.07600
C1314       C  0.10668251  0.88611309  0.37190177    -0.08300
C1315       C  0.11665686  0.90342906  0.39573895    -0.02900
C1316       C  0.14819866  0.93595199  0.39714572     0.03900
N1317       N  0.15840997  0.95623222  0.42017004     0.66400
H1318       H  0.19601210  0.97199332  0.37800776     0.15300
H1319       H  0.08215375  0.86151974  0.37017315     0.15100
N1320       N  0.12009984  0.87823159  0.32769063     0.74200
O1321       O  0.18015040  0.95495727  0.43479619    -0.39300
O1322       O  0.15178068  0.98057286  0.42291841    -0.39200
O1323       O  0.12616530  0.85343889  0.32550957    -0.39900
O1324       O  0.10110511  0.88144717  0.31145565    -0.40000
C1325       C  0.20802281  0.95988439  0.25810082    -0.12300
C1326       C  0.22704009  0.94671013  0.27030118     0.04700
C1327       C  0.24929948  0.93966048  0.25506641    -0.07600
C1328       C  0.25107497  0.94451889  0.22849347    -0.08300
C1329       C  0.23126989  0.95661894  0.21614706    -0.02900
C1330       C  0.21009190  0.96511352  0.23147178     0.03900
N1331       N  0.19034033  0.97895757  0.22045404     0.66400
H1332       H  0.19137810  0.96633388  0.26928507     0.15300
H1333       H  0.26769881  0.93793062  0.21741618     0.15100
N1334       N  0.26926076  0.92601434  0.26596005     0.74200
O1335       O  0.15868663  0.95853180  0.21484631    -0.39300
O1336       O  0.20246541  0.01164030  0.22066283    -0.39200
O1337       O  0.25650843  0.89326479  0.26680365    -0.39900
O1338       O  0.30151171  0.94623548  0.26979051    -0.40000
C1339       C  0.26934405  0.80541033  0.56533007    -0.12300
C1340       C  0.26257100  0.82861738  0.55168481     0.04700
C1341       C  0.25387182  0.85058377  0.56576369    -0.07600
C1342       C  0.25408057  0.85032353  0.59251684    -0.08300
C1343       C  0.26242554  0.82835407  0.60611945    -0.02900
C1344       C  0.26902850  0.80486967  0.59221764     0.03900
N1345       N  0.27687818  0.78130950  0.60495337     0.66400
H1346       H  0.27553180  0.78785392  0.55513166     0.15300
H1347       H  0.24811191  0.86803909  0.60273871     0.15100
N1348       N  0.24538710  0.87394469  0.55338882     0.74200
O1349       O  0.25267006  0.75032449  0.60947526    -0.39300
O1350       O  0.30830580  0.78930652  0.60740366    -0.39200
O1351       O  0.21375556  0.86539073  0.55123776    -0.39900
O1352       O  0.26909829  0.90527214  0.54927169    -0.40000
C1353       C  0.10948729  0.53229540  0.89694612    -0.12300
C1354       C  0.10060767  0.50108219  0.88389627     0.04700
C1355       C  0.09475119  0.47166334  0.89820534    -0.07600
C1356       C  0.09888697  0.47421508  0.92484649    -0.08300
C1357       C  0.10859552  0.50568230  0.93802087    -0.02900
C1358       C  0.11369860  0.53493357  0.92362884     0.03900
N1359       N  0.11216076  0.06091514  0.93643746     0.66400
H1360       H  0.11468638  0.55536820  0.88625113     0.15300
H1361       H  0.09393085  0.45105202  0.93527780     0.15100
N1362       N  0.08340187  0.43860089  0.88607320     0.74200
O1363       O  0.15759834  0.58987729  0.93694741    -0.39300
O1364       O  0.08540271  0.06352452  0.93971304    -0.39200
O1365       O  0.10335481  0.42612417  0.88530552    -0.39900
O1366       O  0.05185425  0.41968916  0.87957451    -0.40000
C1367       C  0.26669665  0.67142942  0.83522758    -0.12300
C1368       C  0.26689774  0.69982907  0.82338472     0.04700
C1369       C  0.23500106  0.69523147  0.81433925    -0.07600
C1370       C  0.20458881  0.66174566  0.81497264    -0.08300
C1371       C  0.20579512  0.63240013  0.82347857    -0.02900
C1372       C  0.23662227  0.63785236  0.83508521     0.03900
N1373       N  0.23865985  0.60892376  0.84472444     0.66400
H1374       H  0.29094041  0.67458239  0.84229723     0.15300
H1375       H  0.18073018  0.65816908  0.80679010     0.15100
N1376       N  0.23391829  0.72341804  0.80211504     0.74200
O1377       O  0.24756860  0.59217404  0.82992017    -0.39300
O1378       O  0.23707619  0.60376239  0.86855274    -0.39200
O1379       O  0.22987882  0.72276051  0.77820606    -0.39900
O1380       O  0.23107956  0.74563790  0.81553023    -0.40000
C1381       C  0.40995067  0.78127309  0.89586758    -0.12300
C1382       C  0.39452639  0.79821281  0.88364391     0.04700
C1383       C  0.37643799  0.81047225  0.89887962    -0.07600
C1384       C  0.37328170  0.80473716  0.92533792    -0.08300
C1385       C  0.38789378  0.78701188  0.93748421    -0.02900
C1386       C  0.40675326  0.77549032  0.92236729     0.03900
N1387       N  0.42152349  0.75646263  0.93325541     0.66400
H1388       H  0.42379667  0.77136487  0.88472545     0.15300
H1389       H  0.35923668  0.81445830  0.93643438     0.15100
N1390       N  0.36079905  0.82862008  0.88791957     0.74200
O1391       O  0.40237993  0.72395299  0.93718063    -0.39300
O1392       O  0.45430179  0.77064807  0.93477392    -0.39200
O1393       O  0.32810611  0.81285810  0.88496395    -0.39900
O1394       O  0.37862420  0.86149533  0.88534806    -0.40000
C1395       C  0.29678067  0.78120616  0.68777267    -0.12300
C1396       C  0.27100884  0.78945114  0.69386501     0.04700
C1397       C  0.26157933  0.78908289  0.71983431    -0.07600
C1398       C  0.28123708  0.78580850  0.73910063    -0.08300
C1399       C  0.30957031  0.78134679  0.73318599    -0.02900
C1400       C  0.31604000  0.77703981  0.70714171     0.03900
N1401       N  0.34389312  0.77143775  0.69982718     0.66400
H1402       H  0.30470696  0.78184222  0.66798774     0.15300
H1403       H  0.27474724  0.78776785  0.75886050     0.15100
N1404       N  0.23421997  0.79558697  0.72696924     0.74200
O1405       O  0.33710923  0.74094763  0.69395438    -0.39300
O1406       O  0.37341851  0.79736725  0.69411831    -0.39200
O1407       O  0.20327291  0.77010543  0.72873697    -0.39900
O1408       O  0.24182169  0.82467477  0.73686127    -0.40000
C1409       C  0.38055798  0.63141962  0.82138206    -0.12300
C1410       C  0.40705627  0.63082132  0.80701532     0.04700
C1411       C  0.43453769  0.66244508  0.79679269    -0.07600
C1412       C  0.43342243  0.69337054  0.79926494    -0.08300
C1413       C  0.40532471  0.69329893  0.81189175    -0.02900
C1414       C  0.37993364  0.66253914  0.82442649     0.03900
N1415       N  0.35301246  0.66246405  0.83980050     0.66400
H1416       H  0.35990776  0.60740344  0.82989670     0.15300
H1417       H  0.45303903  0.71674631  0.78941610     0.15100
N1418       N  0.46135892  0.66275265  0.78123311     0.74200
O1419       O  0.32185984  0.63747383  0.83809276    -0.39300
O1420       O  0.36074070  0.68599959  0.85648857    -0.39200
O1421       O  0.45729240  0.65869000  0.75733091    -0.39900
O1422       O  0.49106557  0.67295634  0.79063949    -0.40000
C1423       C  0.21436636  0.97047904  0.79007038    -0.12300
C1424       C  0.20966879  0.48698517  0.81096612     0.04700
C1425       C  0.23415336  0.49778129  0.83089237    -0.07600
C1426       C  0.26558629  0.49764229  0.82707946    -0.08300
C1427       C  0.27248447  0.48632444  0.80364026    -0.02900
C1428       C  0.24542447  0.97040732  0.78668296     0.03900
N1429       N  0.25093066  0.95776358  0.76295765     0.66400
H1430       H  0.19619710  0.96244041  0.77430960     0.15300
H1431       H  0.28512757  0.50769505  0.84196829     0.15100
N1432       N  0.22714745  0.50858769  0.85496971     0.74200
O1433       O  0.25186126  0.92977050  0.76281845    -0.39300
O1434       O  0.24580296  0.96899805  0.74227635    -0.39200
O1435       O  0.20179454  0.48687966  0.86865268    -0.39900
O1436       O  0.24661016  0.53952478  0.86288270    -0.40000
C1437       C  0.36646847  0.99112396  0.91827103    -0.12300
C1438       C  0.38939112  0.51798336  0.93050925     0.04700
C1439       C  0.42065309  0.54194482  0.91735655    -0.07600
C1440       C  0.42280831  0.54021683  0.89063777    -0.08300
C1441       C  0.39466487  0.51473230  0.87634123    -0.02900
C1442       C  0.36912058  0.98768999  0.89174902     0.03900
N1443       N  0.34425843  0.95554583  0.87976441     0.66400
H1444       H  0.34620338  0.96898791  0.92882783     0.15300
H1445       H  0.44685314  0.55898529  0.88101403     0.15100
N1446       N  0.45062850  0.56827253  0.93062675     0.74200
O1447       O  0.34904537  0.92981866  0.87989399    -0.39300
O1448       O  0.31490886  0.95092633  0.87334351    -0.39200
O1449       O  0.47473362  0.56253395  0.93650564    -0.39900
O1450       O  0.45584182  0.59899731  0.93230461    -0.40000
C1451       C  0.30112402  0.94480096  0.71341332    -0.12300
C1452       C  0.33410629  0.95218010  0.72141399     0.04700
C1453       C  0.35226378  0.93935735  0.70717135    -0.07600
C1454       C  0.33561586  0.91693611  0.68648623    -0.08300
C1455       C  0.30047119  0.90536541  0.68108187    -0.02900
C1456       C  0.28339511  0.92022900  0.69415688     0.03900
N1457       N  0.24718275  0.90796048  0.69007819     0.66400
H1458       H  0.28835583  0.95663140  0.72324244     0.15300
H1459       H  0.34855606  0.90483201  0.67683440     0.15100
N1460       N  0.38610643  0.94630003  0.71468067     0.74200
O1461       O  0.22428794  0.87942951  0.70007587    -0.39300
O1462       O  0.23823367  0.92866494  0.68129278    -0.39200
O1463       O  0.38970885  0.93554728  0.73609195    -0.39900
O1464       O  0.41029302  0.95643819  0.69818445    -0.40000
C1465       C  0.98181314  0.82877981  0.69399710    -0.12300
C1466       C  0.48975045  0.80834126  0.68508893     0.04700
C1467       C  0.47397739  0.77457639  0.69571749    -0.07600
C1468       C  0.45211939  0.76668448  0.71724559    -0.08300
C1469       C  0.44683104  0.79256593  0.72853995    -0.02900
C1470       C  0.46015993  0.82521841  0.71634252     0.03900
N1471       N  0.45518446  0.85224060  0.72692228     0.66400
H1472       H  0.99408291  0.85447541  0.68513633     0.15300
H1473       H  0.44129987  0.74116899  0.72616181     0.15100
N1474       N  0.48195777  0.74916565  0.68611815     0.74200
O1475       O  0.97885468  0.87321032  0.73995595    -0.39300
O1476       O  0.43241691  0.85777725  0.71751254    -0.39200
O1477       O  0.50345817  0.74376783  0.69782944    -0.39900
O1478       O  0.46282492  0.72778539  0.66912977    -0.40000
C1479       C  0.10658502  0.94805100  0.70999935    -0.11100
C1480       C  0.11599840  0.93880513  0.73287294     0.04700
C1481       C  0.12353869  0.91152244  0.73277666    -0.07600
C1482       C  0.11860046  0.89207015  0.71033621    -0.08300
C1483       C  0.10506919  0.89855008  0.68825728    -0.02900
C1484       C  0.10083484  0.92801473  0.68774952     0.03900
N1485       N  0.08625300  0.93504753  0.66592013     0.66400
H1486       H  0.10184853  0.96974664  0.70977800     0.15300
H1487       H  0.12098570  0.86893136  0.71116215     0.15100
N1488       N  0.13318843  0.90122831  0.75576216     0.74200
O1489       O  0.05348493  0.91949003  0.66345107    -0.39300
O1490       O  0.10552937  0.96101611  0.65184998    -0.39200
O1491       O  0.11258350  0.89089474  0.77476901    -0.39900
O1492       O  0.15876176  0.89628465  0.75547307    -0.40000
C1493       C  0.02539044  0.81681955  0.59230015    -0.12300
C1494       C  0.05708995  0.83789812  0.60513308     0.04700
C1495       C  0.08820080  0.85568971  0.59037659    -0.07600
C1496       C  0.08694860  0.85185687  0.56363094    -0.08300
C1497       C  0.05512345  0.83087177  0.55086249    -0.02900
C1498       C  0.02404676  0.81329084  0.56568059     0.03900
N1499       N  0.99059759  0.79211784  0.55414534     0.66400
H1500       H  0.00098079  0.80303200  0.60290880     0.15300
H1501       H  0.11116229  0.86584829  0.55280749     0.15100
N1502       N  0.12134274  0.87771942  0.60206239     0.74200
O1503       O  0.97877772  0.75975971  0.55087630    -0.39300
O1504       O  0.97049888  0.80421063  0.55168180    -0.39200
O1505       O  0.14202782  0.86644288  0.60508952    -0.39900
O1506       O  0.13250336  0.91006682  0.60460501    -0.40000
C1507       C  0.13370600  0.63503760  0.71012858    -0.12300
C1508       C  0.11837495  0.61546026  0.68786451     0.04700
C1509       C  0.11159499  0.58076587  0.68624536    -0.07600
C1510       C  0.11716652  0.56534948  0.70766835    -0.08300
C1511       C  0.12867163  0.58386699  0.73084173    -0.02900
C1512       C  0.13861764  0.61944636  0.73156246     0.03900
N1513       N  0.15418687  0.64010645  0.75387191     0.66400
H1514       H  0.13915010  0.66178332  0.71160428     0.15300
H1515       H  0.11007515  0.53806416  0.70675055     0.15100
N1516       N  0.09475603  0.55947126  0.66436233     0.74200
O1517       O  0.18568140  0.65031127  0.75875600    -0.39300
O1518       O  0.13760590  0.65060200  0.76740688    -0.39200
O1519       O  0.11198127  0.55179392  0.64903018    -0.39900
O1520       O  0.06185578  0.54351852  0.66284354    -0.40000
C1521       C  0.48684650  0.60343715  0.68336305    -0.12300
C1522       C  0.02020364  0.62909380  0.69000373     0.04700
C1523       C  0.02667591  0.64092650  0.71568414    -0.07600
C1524       C  0.50170611  0.62196826  0.73494861    -0.08300
C1525       C  0.46901824  0.59397121  0.72815371    -0.02900
C1526       C  0.46068924  0.58608180  0.70203798     0.03900
N1527       N  0.42674374  0.55885571  0.69436841     0.66400
H1528       H  0.48140721  0.59456105  0.66366560     0.15300
H1529       H  0.50769351  0.62920020  0.75491557     0.15100
N1530       N  0.05981746  0.66981402  0.72316614     0.74200
O1531       O  0.42338291  0.53203879  0.68311023    -0.39300
O1532       O  0.40196522  0.56496984  0.69380007    -0.39200
O1533       O  0.06493553  0.70050850  0.72190927    -0.39900
O1534       O  0.08029134  0.66427871  0.73617659    -0.40000
C1535       C  0.09954689  0.63827792  0.56332534    -0.12300
C1536       C  0.06793545  0.62883531  0.55111026     0.04700
C1537       C  0.03803676  0.61952978  0.56625726    -0.07600
C1538       C  0.04038186  0.62047757  0.59307099    -0.08300
C1539       C  0.07206421  0.62993640  0.60537493    -0.02900
C1540       C  0.10189197  0.63885171  0.59005896     0.03900
N1541       N  0.13505211  0.64937955  0.60120251     0.66400
H1542       H  0.12281714  0.64544089  0.55199837     0.15300
H1543       H  0.01692646  0.61278614  0.60429330     0.15100
N1544       N  0.50574887  0.60900529  0.55507531     0.74200
O1545       O  0.14441605  0.62708208  0.60398086    -0.39300
O1546       O  0.15739861  0.68159530  0.60332061    -0.39200
O1547       O  0.48515795  0.57647844  0.55226011    -0.39900
O1548       O  0.99209903  0.62635786  0.55273692    -0.40000
C1549       C  0.57139472  0.12875389  0.63496075     0.80200
N1550       N  0.54721571  0.13281940  0.64859275    -0.78100
C1551       C  0.54775890  0.13330592  0.67464397     0.82600
N1552       N  0.57169744  0.12878978  0.68678386    -0.78100
C1553       C  0.59492932  0.12342386  0.67397896     0.82700
N1554       N  0.59469032  0.12298376  0.64789193    -0.79800
C1555       C  0.55773985  0.34752584  0.63230348     0.80200
N1556       N  0.58539669  0.37293024  0.64602256    -0.78100
C1557       C  0.58189467  0.37560351  0.67180652     0.82600
N1558       N  0.55109852  0.35400277  0.68326002    -0.78100
C1559       C  0.52341703  0.32986251  0.67008660     0.82700
N1560       N  0.52651302  0.32658069  0.64456914    -0.79800
C1561       C  0.94863081  0.45973231  0.79460972     0.80200
N1562       N  0.92975673  0.42397059  0.79500701    -0.78100
C1563       C  0.94588464  0.40499071  0.79714446     0.82600
N1564       N  0.98161286  0.42231992  0.79866138    -0.78100
C1565       C  0.00117550  0.45814792  0.79745105     0.82700
N1566       N  0.98432472  0.47665777  0.79578327    -0.79800
O1567       O  0.82070371  0.00752449  0.77889251    -0.85400
O1568       O  0.87399843  0.07293982  0.79555562    -0.82400
C1569       C  0.90381369  0.09731179  0.80232302     0.98100
O1570       O  0.93001652  0.09313998  0.80142862    -0.82500
O1571       O  0.91703246  0.04302095  0.83729546    -0.85100
C1572       C  0.89779722  0.01452613  0.84890677     1.02600
O1573       O  0.88101314  0.98603408  0.83662797    -0.77900
O1574       O  0.82520028  0.48551957  0.81237665    -0.78000
C1575       C  0.80747500  0.99260779  0.79992148     1.02600
O1576       O  0.87002046  0.50690238  0.74043904    -0.85400
O1577       O  0.91588010  0.07505111  0.75298467    -0.82400
C1578       C  0.94371958  0.07445526  0.75015374     0.98100
O1579       O  0.95158258  0.05799045  0.76579122    -0.82500
O1580       O  0.94478400  0.01088543  0.80366875    -0.85100
C1581       C  0.92986557  0.47960950  0.79513942     1.02600
O1582       O  0.89802579  0.46413969  0.78898470    -0.77900
O1583       O  0.84135538  0.46010595  0.76495329    -0.78000
C1584       C  0.85161864  0.47424728  0.74304497     1.02500
Cr1585     Cr  0.87104674  0.03922683  0.76922450     1.93700
Cr1586     Cr  0.93248785  0.04890539  0.80123358     1.93200
Cr1587     Cr  0.86331377  0.47757525  0.79962422     1.39100
O1588       O  0.88904524  0.02157976  0.79043763    -1.23100
O1589       O  0.87331372  0.21775334  0.80517513    -0.85400
O1590       O  0.81689362  0.22235124  0.78983468    -0.82400
C1591       C  0.80417409  0.22663332  0.81022502     0.98100
O1592       O  0.81971226  0.25558155  0.82198695    -0.82500
O1593       O  0.87814247  0.31298508  0.84212297    -0.85100
C1594       C  0.89415637  0.30106504  0.85478153     1.02600
O1595       O  0.91266690  0.29084859  0.84337716    -0.77900
O1596       O  0.92909505  0.25622154  0.80656822    -0.78000
C1597       C  0.90407454  0.22512447  0.80957933     1.02600
O1598       O  0.91117909  0.25694917  0.76003959    -0.85400
O1599       O  0.85722762  0.26659373  0.74921671    -0.82400
C1600       C  0.83745197  0.27903131  0.75114870     0.98100
O1601       O  0.83269260  0.28979770  0.77266717    -0.82500
O1602       O  0.89319564  0.34836546  0.79265531    -0.85100
C1603       C  0.92470371  0.36597097  0.79996457     1.02600
O1604       O  0.93842057  0.35054569  0.81069263    -0.77900
O1605       O  0.94372232  0.31188271  0.77131924    -0.78000
C1606       C  0.93486988  0.28792740  0.75482803     1.02500
Cr1607     Cr  0.86607827  0.24389592  0.77778850     1.93700
Cr1608     Cr  0.85800386  0.30051231  0.80652015     1.93200
Cr1609     Cr  0.92763843  0.30096252  0.80727365     1.39100
O1610       O  0.88364405  0.28199014  0.79720475    -1.23100
O1611       O  0.68494770  0.08058761  0.79261799    -0.85400
O1612       O  0.68725172  0.02266012  0.80818783    -0.82400
C1613       C  0.67937167  0.99154502  0.81212959     0.98100
O1614       O  0.64989815  0.47007691  0.80758552    -0.82500
O1615       O  0.61103984  0.48247382  0.84387074    -0.85100
C1616       C  0.60173740  0.99864705  0.85690891     1.02600
O1617       O  0.59394709  0.01877182  0.84515279    -0.77900
O1618       O  0.65300762  0.07699084  0.82570336    -0.78000
C1619       C  0.68136089  0.09318762  0.81324032     1.02600
O1620       O  0.64054542  0.04137263  0.75211627    -0.85400
O1621       O  0.65371022  0.49282680  0.76088944    -0.82400
C1622       C  0.62433016  0.46651457  0.75548807     0.98100
O1623       O  0.59824154  0.45714358  0.77022481    -0.82500
O1624       O  0.55482094  0.46051848  0.80836164    -0.85100
C1625       C  0.54028141  0.47668203  0.79995078     1.02600
O1626       O  0.55900829  0.00821726  0.79652633    -0.77900
O1627       O  0.61915341  0.06712922  0.77647771    -0.78000
C1628       C  0.62880429  0.06180309  0.75465024     1.02500
Cr1629     Cr  0.66267349  0.03129793  0.78049453     1.93700
Cr1630     Cr  0.60496290  0.47131491  0.80693584     1.93200
Cr1631     Cr  0.60748753  0.04047536  0.81002708     1.39100
O1632       O  0.62402283  0.01340071  0.79945792    -1.23100
C1633       C  0.78287143  0.33765356  0.62873795     0.80200
N1634       N  0.77843391  0.31034762  0.64362963    -0.78100
C1635       C  0.78262826  0.31463943  0.66943785     0.82600
N1636       N  0.79269546  0.34616627  0.67985364    -0.78100
C1637       C  0.79821275  0.37346533  0.66543605     0.82700
N1638       N  0.79354377  0.36948045  0.63984862    -0.79800
C1639       C  0.72191596  0.44364518  0.29579794     0.80200
N1640       N  0.69383082  0.44161164  0.30861620    -0.78100
C1641       C  0.69211004  0.43919119  0.33462787     0.82600
N1642       N  0.71774685  0.43835888  0.34739678    -0.78100
C1643       C  0.74509250  0.43959850  0.33521128     0.82700
N1644       N  0.74724470  0.44201823  0.30930450    -0.79800
C1645       C  0.94695920  0.16665342  0.30022295     0.80200
N1646       N  0.94569270  0.19089201  0.31596474    -0.78100
C1647       C  0.94706494  0.18820174  0.34181399     0.82600
N1648       N  0.95009152  0.16188100  0.35147044    -0.78100
C1649       C  0.95225568  0.13830256  0.33661777     0.82700
N1650       N  0.95130899  0.14081851  0.31073639    -0.79800
C1651       C  0.61479018  0.28444252  0.46395198     0.80200
N1652       N  0.59752572  0.24859910  0.46520831    -0.78100
C1653       C  0.61544542  0.23104846  0.46524457     0.82600
N1654       N  0.65113601  0.25002555  0.46462081    -0.78100
C1655       C  0.66886363  0.28585594  0.46295733     0.82700
N1656       N  0.65045732  0.30280883  0.46258057    -0.79800
O1657       O  0.99661531  0.35149944  0.46815346    -0.85400
O1658       O  0.55989141  0.40867018  0.45443031    -0.82400
C1659       C  0.57451044  0.42071839  0.47561774     0.98100
O1660       O  0.58621574  0.40486680  0.48831902    -0.82500
O1661       O  0.58723697  0.34810438  0.50845061    -0.85100
C1662       C  0.55900562  0.33151041  0.52127795     1.02600
O1663       O  0.53027150  0.31355064  0.50993710    -0.77900
O1664       O  0.97898481  0.29599876  0.47360195    -0.78000
C1665       C  0.97296162  0.32101543  0.47407856     1.02600
O1666       O  0.49980763  0.31395803  0.42520163    -0.85400
O1667       O  0.56545911  0.36720500  0.41482944    -0.82400
C1668       C  0.59765154  0.38841423  0.41724099     0.98100
O1669       O  0.61165669  0.39502320  0.43926270    -0.82500
O1670       O  0.60913511  0.33514582  0.45922879    -0.85100
C1671       C  0.59513188  0.30347023  0.46624358     1.02600
O1672       O  0.56482905  0.28814129  0.47632269    -0.77900
O1673       O  0.51730574  0.27877142  0.43891747    -0.78000
C1674       C  0.50089223  0.28617320  0.42303757     1.02500
Cr1675     Cr  0.53211728  0.35911631  0.44252157     1.93700
Cr1676     Cr  0.59514748  0.36860695  0.47292822     1.93200
Cr1677     Cr  0.52514228  0.29784428  0.47400783     1.39100
O1678       O  0.55107680  0.34175317  0.46299844    -1.23100
O1679       O  0.54002435  0.04097817  0.47238305    -0.85400
O1680       O  0.98623073  0.05021156  0.45497569    -0.82400
C1681       C  0.97376402  0.05429925  0.47560568     0.98100
O1682       O  0.99132575  0.08164321  0.48872809    -0.82500
O1683       O  0.54905065  0.13844963  0.51040388    -0.85100
C1684       C  0.56762459  0.12939940  0.52288705     1.02600
O1685       O  0.58555944  0.11879632  0.51127111    -0.77900
O1686       O  0.59624936  0.07771729  0.47686946    -0.78000
C1687       C  0.56991925  0.04678109  0.47857995     1.02600
O1688       O  0.58038199  0.07754794  0.42843234    -0.85400
O1689       O  0.53207532  0.09537733  0.41641271    -0.82400
C1690       C  0.51302499  0.10869262  0.41802111     0.98100
O1691       O  0.50562327  0.11686085  0.43974197    -0.82500
O1692       O  0.56418872  0.17410647  0.46146311    -0.85100
C1693       C  0.59617535  0.19169088  0.46724033     1.02600
O1694       O  0.61163023  0.17612852  0.47528233    -0.77900
O1695       O  0.61621050  0.13219468  0.43896353    -0.78000
C1696       C  0.60808664  0.10630541  0.42445343     1.02500
Cr1697     Cr  0.53615664  0.06927630  0.44498724     1.93700
Cr1698     Cr  0.52964827  0.12618565  0.47437699     1.93200
Cr1699     Cr  0.59891654  0.12498901  0.47480184     1.39100
O1700       O  0.55501474  0.10722589  0.46481930    -1.23100
O1701       O  0.85194849  0.41372538  0.45478107    -0.85400
O1702       O  0.85607947  0.35615889  0.46870265    -0.82400
C1703       C  0.84785804  0.32497950  0.47316291     0.98100
O1704       O  0.81709148  0.30021958  0.46880681    -0.82500
O1705       O  0.78083169  0.31313874  0.50591915    -0.85100
C1706       C  0.77133566  0.33173927  0.51801612     1.02600
O1707       O  0.76096354  0.34972451  0.50626191    -0.77900
O1708       O  0.81843077  0.40902734  0.48725562    -0.78000
C1709       C  0.84715986  0.42557444  0.47534560     1.02600
O1710       O  0.80797794  0.37557925  0.41379255    -0.85400
O1711       O  0.81858901  0.32106710  0.42275119    -0.82400
C1712       C  0.78821112  0.29706276  0.41688741     0.98100
O1713       O  0.76315030  0.28792222  0.43251346    -0.82500
O1714       O  0.72307026  0.29065577  0.47247711    -0.85100
C1715       C  0.70788075  0.30601545  0.46411215     1.02600
O1716       O  0.72568079  0.33804452  0.45781836    -0.77900
O1717       O  0.78416112  0.39865723  0.43837564    -0.78000
C1718       C  0.79420965  0.39423274  0.41650051     1.02500
Cr1719     Cr  0.83053436  0.36509567  0.44170811     1.93700
Cr1720     Cr  0.77245258  0.30143735  0.46920771     1.93200
Cr1721     Cr  0.77368948  0.37179563  0.47146832     1.39100
O1722       O  0.79196683  0.34633310  0.46084105    -1.23100
C1723       C  0.72138863  0.16890925  0.29913834     0.80200
N1724       N  0.74423590  0.20126341  0.30892407    -0.78100
C1725       C  0.74572343  0.20696616  0.33434514     0.82600
N1726       N  0.72422721  0.18090507  0.34995506    -0.78100
C1727       C  0.70084497  0.14879619  0.34115505     0.82700
N1728       N  0.69886281  0.14256210  0.31539051    -0.79800
C1729       C  0.88408360  0.02379318  0.95908158     0.80200
N1730       N  0.85422633  0.49593956  0.97058055    -0.78100
C1731       C  0.85042097  0.49732901  0.99634817     0.82600
N1732       N  0.87740880  0.02913471  0.01021109    -0.78100
C1733       C  0.90767898  0.05164017  0.99844179     0.82700
N1734       N  0.91093415  0.04945309  0.97284073    -0.79800
C1735       C  0.87657105  0.28091764  0.96532873     0.80200
N1736       N  0.85034936  0.28344344  0.97737272    -0.78100
C1737       C  0.84616756  0.27918487  0.00318174     0.82600
N1738       N  0.86694830  0.27133204  0.01641333    -0.78100
C1739       C  0.89173012  0.26726200  0.00495872     0.82700
N1740       N  0.89697026  0.27224474  0.97931641    -0.79800
C1741       C  0.77328320  0.11440063  0.13192122     0.80200
N1742       N  0.80898740  0.13255880  0.13300691    -0.78100
C1743       C  0.82730840  0.11544814  0.13349340     0.82600
N1744       N  0.80946147  0.07971718  0.13301846    -0.78100
C1745       C  0.77379636  0.06095957  0.13203294     0.82700
N1746       N  0.75584745  0.07850210  0.13167340    -0.79800
O1747       O  0.51363987  0.23577693  0.13644915    -0.85400
O1748       O  0.50493554  0.17492986  0.11490063    -0.82400
C1749       C  0.50699240  0.16146537  0.13533211     0.98100
O1750       O  0.48140958  0.14901837  0.15077565    -0.82500
O1751       O  0.92370725  0.14306130  0.17545726    -0.85100
C1752       C  0.93326348  0.17002966  0.18927560     1.02600
O1753       O  0.94096669  0.19902962  0.17924441    -0.77900
O1754       O  0.47668910  0.25327267  0.14579939    -0.78000
C1755       C  0.50758792  0.25844048  0.14590678     1.02600
O1756       O  0.97185081  0.23946709  0.09612876    -0.85400
O1757       O  0.95602613  0.17349881  0.08045737    -0.82400
C1758       C  0.94659613  0.14145993  0.08127584     0.98100
O1759       O  0.94126036  0.12572591  0.10265608    -0.82500
O1760       O  0.88425556  0.12230977  0.12846501    -0.85100
C1761       C  0.86624161  0.13555239  0.13593441     1.02600
O1762       O  0.88096423  0.16578193  0.14602125    -0.77900
O1763       O  0.91807129  0.21491929  0.10934555    -0.78000
C1764       C  0.94094270  0.23188550  0.09243167     1.02500
Cr1765     Cr  0.48420630  0.20448993  0.10916255     1.93700
Cr1766     Cr  0.93367095  0.13836104  0.13850525     1.93200
Cr1767     Cr  0.93039594  0.20653064  0.14395753     1.39100
O1768       O  0.94888490  0.18275495  0.13047442    -1.23100
O1769       O  0.70802020  0.37284028  0.13551524    -0.85400
O1770       O  0.65009751  0.37628280  0.12284847    -0.82400
C1771       C  0.63829764  0.38202046  0.14318118     0.98100
O1772       O  0.65481911  0.41112314  0.15443415    -0.82500
O1773       O  0.71353743  0.46897441  0.17263636    -0.85100
C1774       C  0.73102077  0.45830505  0.18470427     1.02600
O1775       O  0.74923332  0.44818852  0.17268805    -0.77900
O1776       O  0.76368086  0.41170664  0.13608720    -0.78000
C1777       C  0.73885660  0.38078427  0.14059858     1.02600
O1778       O  0.74247801  0.41065954  0.08901036    -0.85400
O1779       O  0.68726487  0.41989890  0.08057925    -0.82400
C1780       C  0.66837541  0.43334877  0.08321120     0.98100
O1781       O  0.66408130  0.44375555  0.10497760    -0.82500
O1782       O  0.72431146  0.50302970  0.12352513    -0.85100
C1783       C  0.75583183  0.52122173  0.13038733     1.02600
O1784       O  0.77146090  0.50616422  0.13873826    -0.77900
O1785       O  0.77521973  0.46597382  0.09920495    -0.78000
C1786       C  0.76553799  0.44154130  0.08294647     1.02500
Cr1787     Cr  0.69847476  0.39801510  0.10863962     1.93700
Cr1788     Cr  0.69135857  0.45525431  0.13787684     1.93200
Cr1789     Cr  0.76158596  0.45656322  0.13592862     1.39100
O1790       O  0.71691446  0.43680809  0.12750142    -1.23100
O1791       O  0.66255388  0.18867514  0.14110386    -0.85400
O1792       O  0.72399374  0.24363129  0.12417204    -0.82400
C1793       C  0.73965103  0.25487887  0.14504087     0.98100
O1794       O  0.75008796  0.23741005  0.15703049    -0.82500
O1795       O  0.74777096  0.17827471  0.17527388    -0.85100
C1796       C  0.71968145  0.16161383  0.18825813     1.02600
O1797       O  0.69043234  0.14423723  0.17746416    -0.77900
O1798       O  0.63882736  0.13202891  0.14218314    -0.78000
C1799       C  0.63587049  0.15901437  0.14409732     1.02600
O1800       O  0.65835916  0.15035971  0.09501744    -0.85400
O1801       O  0.72468399  0.20204556  0.08334342    -0.82400
C1802       C  0.75716397  0.22248571  0.08522731     0.98100
O1803       O  0.77234237  0.22694730  0.10670573    -0.82500
O1804       O  0.76835244  0.16541415  0.12597370    -0.85100
C1805       C  0.75365798  0.13368969  0.13307718     1.02600
O1806       O  0.72280106  0.11864939  0.14231599    -0.77900
O1807       O  0.67624137  0.11415051  0.10516240    -0.78000
C1808       C  0.66071248  0.12376198  0.09011224     1.02500
Cr1809     Cr  0.69363354  0.19446414  0.11246913     1.93700
Cr1810     Cr  0.75630295  0.19999037  0.14035766     1.93200
Cr1811     Cr  0.68432352  0.13059406  0.14111112     1.39100
O1812       O  0.71195739  0.17483288  0.13100923    -1.23100
C1813       C  0.61066394  0.00422507  0.96826823     0.80200
N1814       N  0.61634747  0.48107384  0.97844677    -0.78100
C1815       C  0.61790065  0.48039403  0.00436850     0.82600
N1816       N  0.61386123  0.00563131  0.02001494    -0.78100
C1817       C  0.61258203  0.03141572  0.00766982     0.82700
N1818       N  0.61142941  0.03108989  0.98175759    -0.79800
C1819       C  0.66509593  0.11310555  0.04430394    -0.12300
C1820       C  0.64487798  0.10402777  0.06674353     0.04700
C1821       C  0.61022826  0.07586183  0.06663545    -0.07600
C1822       C  0.59745450  0.05483254  0.04481507    -0.08300
C1823       C  0.61896140  0.06162041  0.02316564    -0.02900
C1824       C  0.65234609  0.09208733  0.02243882     0.03900
N1825       N  0.67529283  0.09925807  0.00102461     0.66400
H1826       H  0.69162492  0.13528446  0.04427043     0.15300
H1827       H  0.57197206  0.03112095  0.04568926     0.15100
N1828       N  0.58878186  0.06678391  0.08912976     0.74200
O1829       O  0.68063086  0.12329837  0.98558828    -0.39300
O1830       O  0.69477719  0.08623622  0.00018315    -0.39200
O1831       O  0.56777142  0.07780302  0.09190057    -0.39900
O1832       O  0.58677407  0.04349392  0.10400386    -0.40000
C1833       C  0.71725063  0.32303675  0.16155125    -0.12300
C1834       C  0.74508204  0.35251905  0.14976764     0.04700
C1835       C  0.77580289  0.35163716  0.14414550    -0.07600
C1836       C  0.77567900  0.31987787  0.14640502    -0.08300
C1837       C  0.74538163  0.28900528  0.15423622    -0.02900
C1838       C  0.71673891  0.29130960  0.16338301     0.03900
N1839       N  0.68570080  0.26092901  0.17249098     0.66400
H1840       H  0.69490332  0.32413087  0.16817346     0.15300
H1841       H  0.79825626  0.31866567  0.13996446     0.15100
N1842       N  0.80627955  0.38173786  0.13426875     0.74200
O1843       O  0.68412729  0.25139023  0.19541048    -0.39300
O1844       O  0.65792718  0.24864772  0.15973879    -0.39200
O1845       O  0.83156589  0.40005249  0.14896022    -0.39900
O1846       O  0.81058772  0.38600434  0.11039858    -0.40000
C1847       C  0.66957049  0.44725148  0.03693343    -0.12300
C1848       C  0.65120410  0.43711141  0.06038341     0.04700
C1849       C  0.61745471  0.43251655  0.06185636    -0.07600
C1850       C  0.60424860  0.44145548  0.04096117    -0.08300
C1851       C  0.62453150  0.45601920  0.01873119    -0.02900
C1852       C  0.65672568  0.45726732  0.01622396     0.03900
N1853       N  0.67874630  0.47312314  0.99434903     0.66400
H1854       H  0.69538710  0.45045054  0.03542016     0.15300
H1855       H  0.57945784  0.44045954  0.04312002     0.15100
N1856       N  0.59693588  0.42038728  0.08480850     0.74200
O1857       O  0.69719931  0.50610027  0.99288906    -0.39300
O1858       O  0.68397522  0.45440540  0.97871849    -0.39200
O1859       O  0.59560765  0.44217201  0.09976705    -0.39900
O1860       O  0.57512052  0.38811047  0.08746453    -0.40000
C1861       C  0.60027505  0.18188904  0.12776984    -0.12300
C1862       C  0.60174297  0.15748820  0.14376711     0.04700
C1863       C  0.57155557  0.13397158  0.15785826    -0.07600
C1864       C  0.54073978  0.13579661  0.15582665    -0.08300
C1865       C  0.53965801  0.16054682  0.13956632    -0.02900
C1866       C  0.57033366  0.18391009  0.12565656     0.03900
N1867       N  0.57196863  0.21038937  0.10917907     0.66400
H1868       H  0.62289188  0.19992712  0.11639575     0.15300
H1869       H  0.51760628  0.11755789  0.16658858     0.15100
N1870       N  0.57204504  0.10897581  0.17467142     0.74200
O1871       O  0.58231616  0.24067786  0.11797063    -0.39300
O1872       O  0.57014207  0.20568412  0.08525310    -0.39200
O1873       O  0.57892936  0.11645296  0.19803526    -0.39900
O1874       O  0.56019804  0.07782529  0.16719541    -0.40000
C1875       C  0.56817487  0.29129332  0.16108173    -0.12300
C1876       C  0.53811662  0.29200090  0.15443011     0.04700
C1877       C  0.54078346  0.32490342  0.15093885    -0.07600
C1878       C  0.57404655  0.35556891  0.14999933    -0.08300
C1879       C  0.60439985  0.35368176  0.15304116    -0.02900
C1880       C  0.60100062  0.32157362  0.16013693     0.03900
N1881       N  0.63096131  0.31851305  0.16395070     0.66400
H1882       H  0.56664372  0.26649371  0.16479728     0.15300
H1883       H  0.57623360  0.38025381  0.14481415     0.15100
N1884       N  0.51052354  0.32735585  0.14625255     0.74200
O1885       O  0.64216874  0.32097708  0.18641341    -0.39300
O1886       O  0.63933990  0.30387385  0.14681085    -0.39200
O1887       O  0.49604792  0.33393080  0.16460690    -0.39900
O1888       O  0.50237309  0.32952215  0.12357952    -0.40000
C1889       C  0.76450090  0.22794963  0.03772054    -0.12300
C1890       C  0.77678893  0.24242358  0.06214306     0.04700
C1891       C  0.80649482  0.27639033  0.06374077    -0.07600
C1892       C  0.82505844  0.29334966  0.04148440    -0.08300
C1893       C  0.81632094  0.27592283  0.01778717    -0.02900
C1894       C  0.78408677  0.24440392  0.01559468     0.03900
N1895       N  0.77353447  0.22633186  0.99165784     0.66400
H1896       H  0.74089431  0.20255094  0.03588323     0.15300
H1897       H  0.84974690  0.31777685  0.04342804     0.15100
N1898       N  0.81926009  0.29351215  0.08778717     0.74200
O1899       O  0.78284351  0.20465493  0.98558312    -0.39300
O1900       O  0.75056466  0.22780227  0.97864735    -0.39200
O1901       O  0.84098587  0.28874273  0.09979427    -0.39900
O1902       O  0.81634643  0.31966683  0.09329253    -0.40000
C1903       C  0.89757679  0.21690839  0.05862444    -0.12300
C1904       C  0.93113051  0.24019584  0.06770514     0.04700
C1905       C  0.95440339  0.26932153  0.05241694    -0.07600
C1906       C  0.94268385  0.27578856  0.02936575    -0.08300
C1907       C  0.90843999  0.25329268  0.02115161    -0.02900
C1908       C  0.88629957  0.22288032  0.03549307     0.03900
N1909       N  0.85090188  0.19960688  0.02796895     0.66400
H1910       H  0.87970330  0.19389935  0.06966212     0.15300
H1911       H  0.95938287  0.29988685  0.01901742     0.15100
N1912       N  0.98869987  0.29432934  0.06105193     0.74200
O1913       O  0.84425081  0.17589557  0.01169097    -0.39300
O1914       O  0.82617920  0.19902764  0.04051941    -0.39200
O1915       O  0.51539997  0.29096981  0.05881983    -0.39900
O1916       O  0.49714599  0.32651106  0.06960260    -0.40000
C1917       C  0.81244272  0.44390506  0.02084868    -0.12300
C1918       C  0.81767157  0.47520423  0.01032148     0.04700
C1919       C  0.80055092  0.49151120  0.02147910    -0.07600
C1920       C  0.78230139  0.47891728  0.04456890    -0.08300
C1921       C  0.78001269  0.44963246  0.05659707    -0.02900
C1922       C  0.79321398  0.43054347  0.04369050     0.03900
N1923       N  0.79037595  0.39965461  0.05455662     0.66400
H1924       H  0.82595438  0.43151852  0.01258537     0.15300
H1925       H  0.77126390  0.49314761  0.05378819     0.15100
N1926       N  0.80509791  0.02950263  0.01429461     0.74200
O1927       O  0.76103925  0.37163628  0.05489146    -0.39300
O1928       O  0.81769529  0.39812399  0.05765246    -0.39200
O1929       O  0.78044190  0.02877510  0.00202216    -0.39900
O1930       O  0.82995506  0.05851182  0.02205832    -0.40000
C1931       C  0.93213810  0.11208029  0.01180877    -0.12300
C1932       C  0.93315678  0.08115554  0.01363360     0.04700
C1933       C  0.94464153  0.07360930  0.03635216    -0.07600
C1934       C  0.94944728  0.09392059  0.05816268    -0.08300
C1935       C  0.94440368  0.12272306  0.05726408    -0.02900
C1936       C  0.93778806  0.13304700  0.03341414     0.03900
N1937       N  0.93261092  0.16221270  0.03137397     0.66400
H1938       H  0.92268635  0.11766815  0.99445992     0.15300
H1939       H  0.95633773  0.08662464  0.07597115     0.15100
N1940       N  0.94805294  0.04326154  0.03796996     0.74200
O1941       O  0.45813134  0.19238156  0.02666991    -0.39300
O1942       O  0.90191472  0.15682163  0.03024993    -0.39200
O1943       O  0.96970570  0.04063227  0.02369647    -0.39900
O1944       O  0.92819752  0.01825713  0.05261747    -0.40000
C1945       C  0.74634632  0.19295032  0.25624128    -0.12300
C1946       C  0.72109981  0.16435966  0.27079088     0.04700
C1947       C  0.69614087  0.13389218  0.25763417    -0.07600
C1948       C  0.69613772  0.13339608  0.23073061    -0.08300
C1949       C  0.72108030  0.16241042  0.21651316    -0.02900
C1950       C  0.74646139  0.19231612  0.22959879     0.03900
N1951       N  0.77110933  0.22337094  0.21620615     0.66400
H1952       H  0.76602158  0.21679857  0.26543443     0.15300
H1953       H  0.67665998  0.11002273  0.22089903     0.15100
N1954       N  0.67072793  0.10325852  0.27102136     0.74200
O1955       O  0.76325789  0.24635426  0.21129676    -0.39300
O1956       O  0.80262046  0.23119793  0.21454924    -0.39200
O1957       O  0.63878558  0.09375377  0.26948409    -0.39900
O1958       O  0.67919058  0.08191547  0.27926488    -0.40000
C1959       C  0.75534144  0.27666450  0.37640380    -0.12300
C1960       C  0.78247598  0.27991479  0.39178673     0.04700
C1961       C  0.80367181  0.26676429  0.38286894    -0.07600
C1962       C  0.79511153  0.24742635  0.36013390    -0.08300
C1963       C  0.76602626  0.24145671  0.34601846    -0.02900
C1964       C  0.74759077  0.25827754  0.35324061     0.03900
N1965       N  0.71800053  0.25277020  0.33882899     0.66400
H1966       H  0.73961680  0.28768164  0.38269674     0.15300
H1967       H  0.80862615  0.23355657  0.35517842     0.15100
N1968       N  0.83085243  0.26858331  0.39830576     0.74200
O1969       O  0.68760341  0.23479499  0.34817789    -0.39300
O1970       O  0.72187850  0.26225772  0.31571404    -0.39200
O1971       O  0.82506158  0.24189874  0.41087967    -0.39900
O1972       O  0.86198748  0.29282091  0.39443034    -0.40000
C1973       C  0.87761497  0.49057570  0.47736699    -0.12300
C1974       C  0.87640573  0.45948117  0.48437438     0.04700
C1975       C  0.90734513  0.46128050  0.49259382    -0.07600
C1976       C  0.93926187  0.49296414  0.49141993    -0.08300
C1977       C  0.93882810  0.02583301  0.48416563    -0.02900
C1978       C  0.90770996  0.02218964  0.47418986     0.03900
N1979       N  0.90844778  0.04929957  0.45903831     0.66400
H1980       H  0.85409140  0.48954502  0.47076417     0.15300
H1981       H  0.96312735  0.49326393  0.49609739     0.15100
N1982       N  0.90690754  0.43055149  0.50101222     0.74200
O1983       O  0.89632672  0.04240698  0.43665679    -0.39300
O1984       O  0.91479857  0.07768020  0.46948451    -0.39200
O1985       O  0.92301895  0.41882047  0.48823723    -0.39900
O1986       O  0.89708763  0.42002715  0.52361038    -0.40000
C1987       C  0.61761959  0.09603055  0.37885316    -0.12300
C1988       C  0.63141714  0.10887242  0.40331665     0.04700
C1989       C  0.66770097  0.12577324  0.40689756    -0.07600
C1990       C  0.68943233  0.13109847  0.38595384    -0.08300
C1991       C  0.67638070  0.12446991  0.36079909    -0.02900
C1992       C  0.63988470  0.10474113  0.35735426     0.03900
N1993       N  0.62507657  0.09684426  0.33234464     0.66400
H1994       H  0.58958526  0.08225150  0.37607420     0.15300
H1995       H  0.71742868  0.14531464  0.38912251     0.15100
N1996       N  0.68322129  0.14094417  0.43104327     0.74200
O1997       O  0.60977776  0.06557284  0.32442274    -0.39300
O1998       O  0.62112660  0.11932903  0.32054089    -0.39200
O1999       O  0.67569659  0.12209594  0.45075312    -0.39900
O2000       O  0.70383705  0.17362175  0.43281970    -0.40000
C2001       C  0.87961255  0.29504422  0.46201760    -0.12300
C2002       C  0.87540222  0.31700595  0.47913023     0.04700
C2003       C  0.90039200  0.33434149  0.49859205    -0.07600
C2004       C  0.93170388  0.33357695  0.49759280    -0.08300
C2005       C  0.93740793  0.31455985  0.47854196    -0.02900
C2006       C  0.91023500  0.29362514  0.46149851     0.03900
N2007       N  0.91444428  0.27348010  0.44184983     0.66400
H2008       H  0.86015397  0.28104163  0.44754578     0.15300
H2009       H  0.95197258  0.34812950  0.51148211     0.15100
N2010       N  0.89392875  0.35145879  0.51968708     0.74200
O2011       O  0.89540242  0.24053177  0.44253755    -0.39300
O2012       O  0.92821008  0.28807429  0.42081924    -0.39200
O2013       O  0.86306624  0.34339980  0.52551079    -0.39900
O2014       O  0.91830005  0.37072683  0.53483711    -0.40000
C2015       C  0.60881104  0.48570469  0.47972541    -0.12300
C2016       C  0.57774929  0.45398103  0.48451887     0.04700
C2017       C  0.54756881  0.45485414  0.49164063    -0.07600
C2018       C  0.54798093  0.48663737  0.49175057    -0.08300
C2019       C  0.57399498  0.01628568  0.48505678    -0.02900
C2020       C  0.60934341  0.51777386  0.47986462     0.03900
N2021       N  0.63493259  0.04527513  0.46862163     0.66400
H2022       H  0.63212970  0.48535139  0.47396991     0.15300
H2023       H  0.52382225  0.48619014  0.49598099     0.15100
N2024       N  0.51547538  0.42323726  0.49704899     0.74200
O2025       O  0.66040178  0.06328790  0.48324681    -0.39300
O2026       O  0.63975251  0.04802327  0.44469016    -0.39200
O2027       O  0.51019000  0.41009554  0.51915660    -0.39900
O2028       O  0.49011297  0.41309708  0.48195766    -0.40000
C2029       C  0.99741021  0.12505458  0.34859562    -0.12300
C2030       C  0.96215401  0.11568852  0.35011540     0.04700
C2031       C  0.94305917  0.09914747  0.37259218    -0.07600
C2032       C  0.96051151  0.09827387  0.39439994    -0.08300
C2033       C  0.99638174  0.11076151  0.39376438    -0.02900
C2034       C  0.51568934  0.12503355  0.37128964     0.03900
N2035       N  0.55254386  0.13864655  0.37019076     0.66400
H2036       H  0.51467891  0.14294747  0.33329929     0.15300
H2037       H  0.94603916  0.08807278  0.41203955     0.15100
N2038       N  0.90638936  0.08645638  0.37424885     0.74200
O2039       O  0.56429032  0.12263286  0.35732417    -0.39300
O2040       O  0.57323409  0.16959858  0.37760852    -0.39200
O2041       O  0.88505891  0.05551785  0.36715492    -0.39900
O2042       O  0.89548708  0.10294560  0.38746884    -0.40000
C2043       C  0.94133717  0.20349327  0.38597953    -0.12300
C2044       C  0.95089110  0.21512615  0.36052188     0.04700
C2045       C  0.97284980  0.25135822  0.35601681    -0.07600
C2046       C  0.48687165  0.27517668  0.37707272    -0.08300
C2047       C  0.98238599  0.26128967  0.40189037    -0.02900
C2048       C  0.95851016  0.22564865  0.40653267     0.03900
N2049       N  0.95364188  0.21091037  0.43160277     0.66400
H2050       H  0.92403719  0.17584730  0.38994734     0.15300
H2051       H  0.50508838  0.30276493  0.37351816     0.15100
N2052       N  0.48371430  0.26580994  0.33109370     0.74200
O2053       O  0.92395810  0.19727036  0.44223967    -0.39300
O2054       O  0.97567838  0.20348613  0.43986519    -0.39200
O2055       O  0.97389016  0.28399652  0.32123055    -0.39900
O2056       O  0.51112306  0.26743397  0.32245357    -0.40000
C2057       C  0.93379882  0.13771449  0.25713504    -0.12300
C2058       C  0.94349588  0.16800682  0.27183987     0.04700
C2059       C  0.94919969  0.19851930  0.25896389    -0.07600
C2060       C  0.94535282  0.19821294  0.23238163    -0.08300
C2061       C  0.93567732  0.16802324  0.21767560    -0.02900
C2062       C  0.92977311  0.13737932  0.23047918     0.03900
N2063       N  0.41808841  0.10537633  0.21781385     0.66400
H2064       H  0.42738296  0.11401094  0.26732819     0.15300
H2065       H  0.95028493  0.22220468  0.22322370     0.15100
N2066       N  0.95993976  0.23062240  0.27222869     0.74200
O2067       O  0.44084025  0.09774414  0.21129430    -0.39300
O2068       O  0.38611228  0.08213372  0.21688497    -0.39200
O2069       O  0.99139436  0.25502565  0.27029476    -0.39900
O2070       O  0.93702234  0.23791791  0.27897232    -0.40000
C2071       C  0.77958667  0.45451440  0.37416664    -0.12300
C2072       C  0.76958964  0.43534872  0.35122387     0.04700
C2073       C  0.77335570  0.40582144  0.34860344    -0.07600
C2074       C  0.78359811  0.39396813  0.36975183    -0.08300
C2075       C  0.78956397  0.41088327  0.39363911    -0.02900
C2076       C  0.78917599  0.44244720  0.39537012     0.03900
N2077       N  0.79720695  0.46192904  0.41872223     0.66400
H2078       H  0.77686683  0.47737385  0.37636018     0.15300
H2079       H  0.78427334  0.36993411  0.36795452     0.15100
N2080       N  0.76303253  0.38532956  0.32569744     0.74200
O2081       O  0.82844002  0.48525321  0.42317248    -0.39300
O2082       O  0.77283692  0.46105673  0.43194188    -0.39200
O2083       O  0.78619530  0.38745092  0.31040525    -0.39900
O2084       O  0.73189325  0.36044404  0.32340452    -0.40000
C2085       C  0.67027876  0.45311040  0.37324748    -0.12300
C2086       C  0.66212152  0.43384965  0.35032337     0.04700
C2087       C  0.62964472  0.40255361  0.34831547    -0.07600
C2088       C  0.60801713  0.38902103  0.37006115    -0.08300
C2089       C  0.61865527  0.40599133  0.39398088    -0.02900
C2090       C  0.64925228  0.43930787  0.39508020     0.03900
N2091       N  0.66023156  0.45882952  0.41842565     0.66400
H2092       H  0.69520126  0.47731885  0.37502249     0.15300
H2093       H  0.58407198  0.36382699  0.36861301     0.15100
N2094       N  0.62027320  0.38212375  0.32536433     0.74200
O2095       O  0.68335277  0.45805678  0.43174321    -0.39300
O2096       O  0.65223788  0.48190287  0.42291748    -0.39200
O2097       O  0.63122656  0.36121585  0.32142445    -0.39900
O2098       O  0.59682960  0.38083475  0.31119788    -0.40000
C2099       C  0.70722741  0.46223996  0.25488143    -0.12300
C2100       C  0.72513232  0.44810523  0.26740647     0.04700
C2101       C  0.74622152  0.43914294  0.25248002    -0.07600
C2102       C  0.74817602  0.44343551  0.22589062    -0.08300
C2103       C  0.72986980  0.45699274  0.21326627    -0.02900
C2104       C  0.70962623  0.46704654  0.22822877     0.03900
N2105       N  0.69147160  0.48239733  0.21684350     0.66400
H2106       H  0.69145828  0.47003745  0.26584845     0.15300
H2107       H  0.76394892  0.43551485  0.21505582     0.15100
N2108       N  0.76506264  0.42448460  0.26373697     0.74200
O2109       O  0.65955783  0.46333318  0.21136014    -0.39300
O2110       O  0.70545379  0.51533203  0.21644565    -0.39200
O2111       O  0.75277437  0.39182303  0.26242660    -0.39900
O2112       O  0.79679786  0.44439086  0.26940088    -0.40000
C2113       C  0.77202601  0.30477525  0.55960178    -0.12300
C2114       C  0.77234041  0.33243691  0.54636841     0.04700
C2115       C  0.77499556  0.36094067  0.56050399    -0.07600
C2116       C  0.77767822  0.36147127  0.58711661    -0.08300
C2117       C  0.77793757  0.33413612  0.60048244    -0.02900
C2118       C  0.77453952  0.30521752  0.58634801     0.03900
N2119       N  0.77409981  0.27628667  0.59861666     0.66400
H2120       H  0.76985672  0.28255873  0.54913408     0.15300
H2121       H  0.78004090  0.38396469  0.59727793     0.15100
N2122       N  0.77674087  0.39049808  0.54816072     0.74200
O2123       O  0.74519965  0.24959899  0.60452551    -0.39300
O2124       O  0.80161365  0.27464955  0.59905921    -0.39200
O2125       O  0.74991246  0.39334394  0.54766155    -0.39900
O2126       O  0.80617992  0.41664738  0.54254058    -0.40000
C2127       C  0.60216849  0.02610878  0.89879157    -0.12300
C2128       C  0.60163960  0.99829482  0.88542271     0.04700
C2129       C  0.60349909  0.97216784  0.89957878    -0.07600
C2130       C  0.60675202  0.97488514  0.92628243    -0.08300
C2131       C  0.60780466  0.00301780  0.93971739    -0.02900
C2132       C  0.60525272  0.02879736  0.92547371     0.03900
N2133       N  0.62455206  0.56794039  0.93566373     0.66400
H2134       H  0.60107236  0.04663312  0.88843467     0.15300
H2135       H  0.60808417  0.95442135  0.93651537     0.15100
N2136       N  0.60128435  0.94216905  0.88730111     0.74200
O2137       O  0.63537534  0.08630382  0.94026766    -0.39300
O2138       O  0.60263984  0.57761477  0.93949957    -0.39200
O2139       O  0.62748221  0.93823875  0.88700169    -0.39900
O2140       O  0.57188571  0.91714879  0.88046725    -0.40000
C2141       C  0.77433585  0.16555799  0.82421915    -0.12300
C2142       C  0.77203536  0.19546923  0.82014302     0.04700
C2143       C  0.73859043  0.19181037  0.81924802    -0.07600
C2144       C  0.70833883  0.15799920  0.82007886    -0.08300
C2145       C  0.71108836  0.12774797  0.82137695    -0.02900
C2146       C  0.74458949  0.13204986  0.82453820     0.03900
N2147       N  0.74939469  0.10261640  0.82626373     0.66400
H2148       H  0.79983709  0.16793806  0.82471470     0.15300
H2149       H  0.68293842  0.15529336  0.81736444     0.15100
N2150       N  0.73499343  0.22161502  0.81501431     0.74200
O2151       O  0.75027184  0.08751415  0.80594480    -0.39300
O2152       O  0.76333760  0.09927508  0.84611882    -0.39200
O2153       O  0.72928793  0.22822067  0.79272420    -0.39900
O2154       O  0.73106761  0.23720393  0.83391334    -0.40000
C2155       C  0.90581119  0.28126791  0.89614029    -0.12300
C2156       C  0.89102047  0.29832589  0.88327120     0.04700
C2157       C  0.87212999  0.31032099  0.89784317    -0.07600
C2158       C  0.86785048  0.30440543  0.92435381    -0.08300
C2159       C  0.88213398  0.28675704  0.93711717    -0.02900
C2160       C  0.90154374  0.27533524  0.92256412     0.03900
N2161       N  0.91604031  0.25637383  0.93396124     0.66400
H2162       H  0.92024937  0.27153031  0.88556895     0.15300
H2163       H  0.85328313  0.31392938  0.93499786     0.15100
N2164       N  0.85712387  0.32863879  0.88618390     0.74200
O2165       O  0.89810309  0.22334104  0.93501007    -0.39300
O2166       O  0.94837253  0.27182827  0.93849149    -0.39200
O2167       O  0.82495881  0.31242573  0.88100476    -0.39900
O2168       O  0.87429332  0.36170939  0.88538240    -0.40000
C2169       C  0.81296174  0.28420952  0.68219055    -0.12300
C2170       C  0.78494891  0.28970106  0.68638049     0.04700
C2171       C  0.77058157  0.28510003  0.71124849    -0.07600
C2172       C  0.78748091  0.28048988  0.73190592    -0.08300
C2173       C  0.81825219  0.27949135  0.72824784    -0.02900
C2174       C  0.82971616  0.27902292  0.70285763     0.03900
N2175       N  0.86008046  0.27657633  0.69775231     0.66400
H2176       H  0.82447913  0.28804528  0.66321618     0.15300
H2177       H  0.77721121  0.27920143  0.75103896     0.15100
N2178       N  0.74126412  0.28939484  0.71617030     0.74200
O2179       O  0.85689854  0.24672819  0.69538747    -0.39300
O2180       O  0.88769889  0.30324100  0.68983977    -0.39200
O2181       O  0.71095845  0.26268940  0.71686577    -0.39900
O2182       O  0.74615448  0.31808954  0.72507864    -0.40000
C2183       C  0.88784961  0.13586781  0.82667490    -0.12300
C2184       C  0.90896560  0.13218486  0.80821567     0.04700
C2185       C  0.93317437  0.16169146  0.79386485    -0.07600
C2186       C  0.93376652  0.19338241  0.79653538    -0.08300
C2187       C  0.91090921  0.19634086  0.81361365    -0.02900
C2188       C  0.88953665  0.16819189  0.83001615     0.03900
N2189       N  0.87021935  0.17264025  0.85032676     0.66400
H2190       H  0.87013352  0.11365698  0.83843802     0.15300
H2191       H  0.95014134  0.21484443  0.78370616     0.15100
N2192       N  0.95459373  0.15887298  0.77450731     0.74200
O2193       O  0.83846528  0.15002599  0.85408393    -0.39300
O2194       O  0.88582106  0.19760219  0.86601932    -0.39200
O2195       O  0.94406495  0.15271846  0.75168152    -0.39900
O2196       O  0.98632842  0.16979025  0.77910091    -0.40000
C2197       C  0.71578090  0.47366988  0.78831163    -0.12300
C2198       C  0.70800541  0.98411562  0.81330505     0.04700
C2199       C  0.73177561  0.99416200  0.83371342    -0.07600
C2200       C  0.76339452  0.99412304  0.83022799    -0.08300
C2201       C  0.77134409  0.98437377  0.80645956    -0.02900
C2202       C  0.74658789  0.47299454  0.78454459     0.03900
N2203       N  0.75151867  0.45961656  0.76089609     0.66400
H2204       H  0.69722222  0.46554115  0.77280253     0.15300
H2205       H  0.78243603  0.00357493  0.84546183     0.15100
N2206       N  0.72361564  0.00329773  0.85804659     0.74200
O2207       O  0.74680158  0.42902948  0.76016232    -0.39300
O2208       O  0.75349257  0.47516707  0.74024419    -0.39200
O2209       O  0.71231256  0.98101032  0.87587381    -0.39900
O2210       O  0.72150851  0.03050139  0.86036051    -0.40000
C2211       C  0.86220469  0.49156657  0.91626315    -0.12300
C2212       C  0.88821099  0.02132763  0.93093620     0.04700
C2213       C  0.91551763  0.04917933  0.91679069    -0.07600
C2214       C  0.91868249  0.04564469  0.89046689    -0.08300
C2215       C  0.89489229  0.01509062  0.87728281    -0.02900
C2216       C  0.86453909  0.48961347  0.88959416     0.03900
N2217       N  0.83518811  0.46258287  0.87620147     0.66400
H2218       H  0.83853853  0.47184977  0.92574437     0.15300
H2219       H  0.93961585  0.06760154  0.88018584     0.15100
N2220       N  0.93946255  0.08200855  0.92845473     0.74200
O2221       O  0.83132184  0.43238923  0.87449299    -0.39300
O2222       O  0.81014005  0.46695092  0.87052272    -0.39200
O2223       O  0.97082461  0.09022474  0.93176099    -0.39900
O2224       O  0.93086127  0.10490995  0.93148084    -0.40000
C2225       C  0.80766042  0.44321116  0.70976601    -0.12300
C2226       C  0.84027012  0.45271053  0.72003640     0.04700
C2227       C  0.86171732  0.44203519  0.70794141    -0.07600
C2228       C  0.84915042  0.42007405  0.68660564    -0.08300
C2229       C  0.81497975  0.40751141  0.67797865    -0.02900
C2230       C  0.79452966  0.42007918  0.68906770     0.03900
N2231       N  0.75918807  0.40667572  0.68137739     0.66400
H2232       H  0.79157292  0.45215636  0.71876278     0.15300
H2233       H  0.86450628  0.40946656  0.67866813     0.15100
N2234       N  0.89444040  0.45001191  0.71871426     0.74200
O2235       O  0.73526305  0.37798027  0.69046512    -0.39300
O2236       O  0.75120685  0.42629818  0.66952264    -0.39200
O2237       O  0.89457321  0.43309197  0.73800300    -0.39900
O2238       O  0.92228014  0.46762320  0.70592383    -0.40000
C2239       C  0.48192923  0.33731164  0.69534656    -0.12300
C2240       C  0.99055458  0.31218781  0.68358658     0.04700
C2241       C  0.97587991  0.27829076  0.69386542    -0.07600
C2242       C  0.95633903  0.27010211  0.71667598    -0.08300
C2243       C  0.95204833  0.29571405  0.72951843    -0.02900
C2244       C  0.96382622  0.32838606  0.71768717     0.03900
N2245       N  0.95972765  0.35518835  0.72971994     0.66400
H2246       H  0.49342358  0.36373555  0.68786028     0.15300
H2247       H  0.94634495  0.24441995  0.72512559     0.15100
N2248       N  0.98275561  0.25299435  0.68245110     0.74200
O2249       O  0.48539173  0.37890345  0.74492756    -0.39300
O2250       O  0.93658794  0.36126424  0.72186297    -0.39200
O2251       O  0.00319448  0.24526629  0.69326361    -0.39900
O2252       O  0.96352943  0.23383827  0.66455131    -0.40000
C2253       C  0.62158458  0.45924857  0.70800671    -0.11100
C2254       C  0.62144067  0.44593619  0.73236919     0.04700
C2255       C  0.61871994  0.41303205  0.73433480    -0.07600
C2256       C  0.61288747  0.39260682  0.71235789    -0.08300
C2257       C  0.60793366  0.40365952  0.68838428    -0.02900
C2258       C  0.61448977  0.43820118  0.68602145     0.03900
N2259       N  0.60988374  0.45067267  0.66208856     0.66400
H2260       H  0.62475259  0.48507313  0.70625124     0.15300
H2261       H  0.60758107  0.36601250  0.71460439     0.15100
N2262       N  0.61927657  0.39893669  0.75873499     0.74200
O2263       O  0.58019816  0.44566927  0.65625950    -0.39300
O2264       O  0.63636182  0.47175600  0.64906326    -0.39200
O2265       O  0.59101238  0.38073528  0.77093936    -0.39900
O2266       O  0.64634046  0.39879900  0.76557626    -0.40000
C2267       C  0.53019545  0.31668697  0.59140498    -0.12300
C2268       C  0.56001837  0.34307607  0.60398180     0.04700
C2269       C  0.59040908  0.36411854  0.58904513    -0.07600
C2270       C  0.58987462  0.35927051  0.56236418    -0.08300
C2271       C  0.55956817  0.33365639  0.54984160    -0.02900
C2272       C  0.52968412  0.31177366  0.56490722     0.03900
N2273       N  0.49840598  0.28416062  0.55374590     0.66400
H2274       H  0.50657576  0.29949413  0.60210455     0.15300
H2275       H  0.61324216  0.37631038  0.55134576     0.15100
N2276       N  0.62199069  0.39080903  0.60042043     0.74200
O2277       O  0.49410507  0.25379656  0.55194700    -0.39300
O2278       O  0.47293472  0.28858741  0.54987109    -0.39200
O2279       O  0.64610171  0.38461861  0.60520516    -0.39900
O2280       O  0.62831302  0.42197740  0.60111795    -0.40000
C2281       C  0.63014720  0.13124780  0.71205819    -0.12300
C2282       C  0.61457089  0.11189100  0.68969274     0.04700
C2283       C  0.60826038  0.07737742  0.68767796    -0.07600
C2284       C  0.61508352  0.06210111  0.70858982    -0.08300
C2285       C  0.62718548  0.08036341  0.73179480    -0.02900
C2286       C  0.63652927  0.11583496  0.73300855     0.03900
N2287       N  0.65226009  0.13634818  0.75546369     0.66400
H2288       H  0.63515741  0.15780473  0.71389576     0.15300
H2289       H  0.60824499  0.03491252  0.70734247     0.15100
N2290       N  0.59083366  0.05598527  0.66596974     0.74200
O2291       O  0.68275536  0.14407088  0.76161098    -0.39300
O2292       O  0.63615007  0.14759473  0.76877128    -0.39200
O2293       O  0.60641580  0.04464495  0.65215422    -0.39900
O2294       O  0.55816934  0.04243680  0.66397839    -0.40000
C2295       C  0.98460477  0.10690036  0.68461847    -0.12300
C2296       C  0.51813156  0.12867025  0.69052966     0.04700
C2297       C  0.52453275  0.14065214  0.71616418    -0.07600
C2298       C  0.00205128  0.12115622  0.73636230    -0.08300
C2299       C  0.96822439  0.09537991  0.72962966    -0.02900
C2300       C  0.95867278  0.09026117  0.70358355     0.03900
N2301       N  0.92341057  0.06648175  0.69615023     0.66400
H2302       H  0.97795856  0.09944282  0.66476643     0.15300
H2303       H  0.00907126  0.12670883  0.75636879     0.15100
N2304       N  0.55744041  0.17001607  0.72349410     0.74200
O2305       O  0.91589625  0.03820224  0.68496561    -0.39300
O2306       O  0.90169813  0.07682799  0.69610384    -0.39200
O2307       O  0.56186622  0.20043949  0.72214873    -0.39900
O2308       O  0.57836092  0.16514247  0.73649973    -0.40000
C2309       C  0.58524848  0.11502928  0.56425737    -0.12300
C2310       C  0.56880760  0.13066435  0.55158790     0.04700
C2311       C  0.55372064  0.14618782  0.56673456    -0.07600
C2312       C  0.55480503  0.14517714  0.59364440    -0.08300
C2313       C  0.57108744  0.12927534  0.60625189    -0.02900
C2314       C  0.58654634  0.11421049  0.59102840     0.03900
N2315       N  0.60221183  0.09628909  0.60226836     0.66400
H2316       H  0.59685608  0.10259474  0.55333661     0.15300
H2317       H  0.54312828  0.15741079  0.60471970     0.15100
N2318       N  0.04778751  0.17232417  0.55464506     0.74200
O2319       O  0.58407289  0.06353630  0.60539514    -0.39300
O2320       O  0.63507926  0.11144109  0.60368502    -0.39200
O2321       O  0.01632112  0.16477704  0.55432230    -0.39900
O2322       O  0.55643750  0.19579775  0.54946475    -0.40000
C2323       C  0.57403806  0.63125236  0.63420125     0.80200
N2324       N  0.54927051  0.63399233  0.64813208    -0.78100
C2325       C  0.55028001  0.63451601  0.67415889     0.82600
N2326       N  0.57509036  0.63106370  0.68589800    -0.78100
C2327       C  0.59880680  0.62683257  0.67274369     0.82700
N2328       N  0.59817865  0.62643339  0.64671468    -0.79800
C2329       C  0.55550151  0.84391106  0.63298327     0.80200
N2330       N  0.58270669  0.87042431  0.64616438    -0.78100
C2331       C  0.58034500  0.87244398  0.67206343     0.82600
N2332       N  0.55081431  0.84913935  0.68429441    -0.78100
C2333       C  0.52325364  0.82389092  0.67154638     0.82700
N2334       N  0.52539816  0.82139335  0.64585061    -0.79800
C2335       C  0.94815992  0.95938745  0.79549191     0.80200
N2336       N  0.92907896  0.92362062  0.79578790    -0.78100
C2337       C  0.94493711  0.90438993  0.79808484     0.82600
N2338       N  0.98058594  0.92145045  0.79987430    -0.78100
C2339       C  0.00041156  0.95725861  0.79890888     0.82700
N2340       N  0.98385718  0.97607683  0.79705951    -0.79800
O2341       O  0.82160844  0.50700883  0.77605337    -0.85400
O2342       O  0.87401374  0.57230260  0.79307193    -0.82400
C2343       C  0.90343302  0.59682843  0.80034867     0.98100
O2344       O  0.92997750  0.59314770  0.80000394    -0.82500
O2345       O  0.91739409  0.54347032  0.83643996    -0.85100
C2346       C  0.89766937  0.51501008  0.84797451     1.02600
O2347       O  0.88049103  0.48660388  0.83567807    -0.77900
O2348       O  0.82479353  0.98463810  0.81442872    -0.78000
C2349       C  0.80823160  0.49318477  0.79728968     1.02600
O2350       O  0.86815234  0.00740654  0.74184373    -0.85400
O2351       O  0.91705428  0.57483367  0.75141860    -0.82400
C2352       C  0.94467358  0.57383103  0.74881465     0.98100
O2353       O  0.95242009  0.55777044  0.76486608    -0.82500
O2354       O  0.94523215  0.51114033  0.80287288    -0.85100
C2355       C  0.92950974  0.97946312  0.79571679     1.02600
O2356       O  0.89779116  0.96425875  0.78918603    -0.77900
O2357       O  0.84017811  0.96038836  0.76617366    -0.78000
C2358       C  0.84934119  0.97474863  0.74422483     1.02500
Cr2359     Cr  0.87202887  0.53883276  0.76718872     1.93700
Cr2360     Cr  0.93291741  0.54908446  0.80021794     1.93200
Cr2361     Cr  0.86302511  0.97735306  0.80070814     1.39100
O2362       O  0.88964694  0.52159195  0.78910831    -1.23100
O2363       O  0.86847261  0.71604653  0.80416666    -0.85400
O2364       O  0.81182023  0.72272908  0.79275801    -0.82400
C2365       C  0.80079935  0.72837406  0.81349794     0.98100
O2366       O  0.81866085  0.75703142  0.82529124    -0.82500
O2367       O  0.87984743  0.81335665  0.84334260    -0.85100
C2368       C  0.89584706  0.80057005  0.85491120     1.02600
O2369       O  0.91256698  0.78923290  0.84239434    -0.77900
O2370       O  0.92459675  0.75344619  0.80402311    -0.78000
C2371       C  0.89924272  0.72264193  0.80749705     1.02600
O2372       O  0.90315796  0.75457953  0.75824125    -0.85400
O2373       O  0.84945442  0.76636121  0.75094197    -0.82400
C2374       C  0.83086501  0.77994201  0.75449039     0.98100
O2375       O  0.82867044  0.79118633  0.77652070    -0.82500
O2376       O  0.89160406  0.84838932  0.79422813    -0.85100
C2377       C  0.92352431  0.86533410  0.80051423     1.02600
O2378       O  0.93740270  0.84917437  0.80986281    -0.77900
O2379       O  0.93861238  0.80925095  0.76942892    -0.78000
C2380       C  0.92865127  0.78477933  0.75324072     1.02500
Cr2381     Cr  0.85992281  0.74300404  0.77824824     1.93700
Cr2382     Cr  0.85666381  0.80114178  0.80886675     1.93200
Cr2383     Cr  0.92480307  0.79896982  0.80581326     1.39100
O2384       O  0.88022725  0.78121347  0.79762252    -1.23100
O2385       O  0.68576997  0.58460686  0.79514715    -0.85400
O2386       O  0.68884544  0.52593866  0.80822913    -0.82400
C2387       C  0.68118327  0.49460949  0.81073265     0.98100
O2388       O  0.64815796  0.96676404  0.80881759    -0.82500
O2389       O  0.61041791  0.97954396  0.84473884    -0.85100
C2390       C  0.60092245  0.50077215  0.85567752     1.02600
O2391       O  0.59189031  0.51971118  0.84362121    -0.77900
O2392       O  0.64947246  0.57952821  0.82566116    -0.78000
C2393       C  0.67884795  0.59674923  0.81476203     1.02600
O2394       O  0.64415097  0.54730031  0.75223076    -0.85400
O2395       O  0.65091445  0.98685659  0.76209850    -0.82400
C2396       C  0.62094505  0.96182049  0.75654339     0.98100
O2397       O  0.59528406  0.95375602  0.77134560    -0.82500
O2398       O  0.55381726  0.95888168  0.80963106    -0.85100
C2399       C  0.53989904  0.97593880  0.80183590     1.02600
O2400       O  0.55889972  0.50870543  0.79395529    -0.77900
O2401       O  0.61827772  0.56944448  0.77552554    -0.78000
C2402       C  0.63022770  0.56577139  0.75418314     1.02500
Cr2403     Cr  0.66475651  0.53605600  0.78088169     1.93700
Cr2404     Cr  0.60336874  0.96831521  0.80798212     1.93200
Cr2405     Cr  0.60610615  0.54202825  0.80871620     1.39100
O2406       O  0.62497388  0.51658738  0.79878911    -1.23100
C2407       C  0.76910485  0.83497413  0.63382366     0.80200
N2408       N  0.76523575  0.80881885  0.64979144    -0.78100
C2409       C  0.76912093  0.81468992  0.67554367     0.82600
N2410       N  0.77815927  0.84663811  0.68471774    -0.78100
C2411       C  0.78333443  0.87285750  0.66916341     0.82700
N2412       N  0.77925331  0.86731380  0.64366771    -0.79800
C2413       C  0.72402919  0.94161353  0.29876557     0.80200
N2414       N  0.69558938  0.93870612  0.31164989    -0.78100
C2415       C  0.69318837  0.93475988  0.33756476     0.82600
N2416       N  0.71863850  0.93340956  0.35023165    -0.78100
C2417       C  0.74644652  0.93562726  0.33798255     0.82700
N2418       N  0.74927124  0.93963358  0.31215951    -0.79800
C2419       C  0.94435224  0.66536794  0.30142018     0.80200
N2420       N  0.94255018  0.68945135  0.31694016    -0.78100
C2421       C  0.94422124  0.68733071  0.34279022     0.82600
N2422       N  0.94826482  0.66176682  0.35278545    -0.78100
C2423       C  0.95110271  0.63841913  0.33809889     0.82700
N2424       N  0.94982896  0.64043576  0.31221195    -0.79800
C2425       C  0.61328733  0.78441397  0.46540347     0.80200
N2426       N  0.59639033  0.74854199  0.46636940    -0.78100
C2427       C  0.61471644  0.73141084  0.46670875     0.82600
N2428       N  0.65034133  0.75078379  0.46666521    -0.78100
C2429       C  0.66776080  0.78660030  0.46531609     0.82700
N2430       N  0.64902523  0.80322659  0.46466213    -0.79800
O2431       O  0.99287998  0.84937380  0.46976680    -0.85400
O2432       O  0.55545357  0.90664957  0.45583295    -0.82400
C2433       C  0.56978962  0.91851842  0.47712451     0.98100
O2434       O  0.58161982  0.90274732  0.48977132    -0.82500
O2435       O  0.58330095  0.84626066  0.50944611    -0.85100
C2436       C  0.55489280  0.82954615  0.52199558     1.02600
O2437       O  0.52647186  0.81105391  0.51042816    -0.77900
O2438       O  0.97557158  0.79380116  0.47463239    -0.78000
C2439       C  0.96957595  0.81881072  0.47595612     1.02600
O2440       O  0.49693901  0.81221043  0.42568859    -0.85400
O2441       O  0.56268700  0.86661141  0.41588430    -0.82400
C2442       C  0.59494313  0.88752317  0.41867338     0.98100
O2443       O  0.60839965  0.89409850  0.44086769    -0.82500
O2444       O  0.60667045  0.83460447  0.46055664    -0.85100
C2445       C  0.59301536  0.80288820  0.46738214     1.02600
O2446       O  0.56244152  0.78697879  0.47699768    -0.77900
O2447       O  0.51549186  0.77775872  0.43911932    -0.78000
C2448       C  0.49881668  0.78487804  0.42328488     1.02500
Cr2449     Cr  0.52856906  0.85730151  0.44343602     1.93700
Cr2450     Cr  0.59156768  0.86725052  0.47422748     1.93200
Cr2451     Cr  0.52227773  0.79595393  0.47442793     1.39100
O2452       O  0.54777318  0.84008168  0.46384506    -1.23100
O2453       O  0.54402147  0.54237863  0.47140561    -0.85400
O2454       O  0.98889411  0.54963566  0.45416591    -0.82400
C2455       C  0.97560087  0.55279730  0.47470050     0.98100
O2456       O  0.99214779  0.57983518  0.48824347    -0.82500
O2457       O  0.54899598  0.63717452  0.51038795    -0.85100
C2458       C  0.56766142  0.62831145  0.52291443     1.02600
O2459       O  0.58640864  0.61850963  0.51159091    -0.77900
O2460       O  0.59983075  0.57980664  0.47671349    -0.78000
C2461       C  0.57389378  0.54861342  0.47800730     1.02600
O2462       O  0.58473895  0.58105482  0.42801518    -0.85400
O2463       O  0.53438478  0.59639823  0.41598707    -0.82400
C2464       C  0.51417358  0.60837529  0.41783887     0.98100
O2465       O  0.50671832  0.61623082  0.43962696    -0.82500
O2466       O  0.56442080  0.67396873  0.46184764    -0.85100
C2467       C  0.59608232  0.69206168  0.46835277     1.02600
O2468       O  0.61183474  0.67696956  0.47675290    -0.77900
O2469       O  0.61903031  0.63544273  0.43994142    -0.78000
C2470       C  0.61216084  0.61039555  0.42491558     1.02500
Cr2471     Cr  0.53954265  0.57056558  0.44434585     1.93700
Cr2472     Cr  0.53046952  0.62558996  0.47424349     1.93200
Cr2473     Cr  0.60074607  0.62635746  0.47539196     1.39100
O2474       O  0.55697773  0.60787286  0.46473367    -1.23100
O2475       O  0.85245725  0.91290481  0.46121815    -0.85400
O2476       O  0.85406566  0.85432245  0.47661359    -0.82400
C2477       C  0.84507836  0.82283198  0.48071834     0.98100
O2478       O  0.81426806  0.79869985  0.47566002    -0.82500
O2479       O  0.77621420  0.81188591  0.51140229    -0.85100
C2480       C  0.76622464  0.83056453  0.52289701     1.02600
O2481       O  0.75851334  0.85023669  0.51047807    -0.77900
O2482       O  0.81722789  0.90975484  0.49197581    -0.78000
C2483       C  0.84652385  0.92585433  0.48067840     1.02600
O2484       O  0.81048414  0.87567403  0.41924479    -0.85400
O2485       O  0.81892952  0.82018080  0.42964906    -0.82400
C2486       C  0.78862623  0.79804417  0.42223077     0.98100
O2487       O  0.76290375  0.78854072  0.43730247    -0.82500
O2488       O  0.72121356  0.79097689  0.47610046    -0.85100
C2489       C  0.70670321  0.80673585  0.46733122     1.02600
O2490       O  0.72506729  0.83880433  0.46128479    -0.77900
O2491       O  0.78481426  0.89840699  0.44220162    -0.78000
C2492       C  0.79607526  0.89387543  0.42086950     1.02500
Cr2493     Cr  0.83078074  0.86429519  0.44835312     1.93700
Cr2494     Cr  0.77028854  0.80103589  0.47438781     1.93200
Cr2495     Cr  0.77288338  0.87216024  0.47565886     1.39100
O2496       O  0.79113205  0.84616248  0.46628417    -1.23100
C2497       C  0.72464669  0.68065089  0.29955420     0.80200
N2498       N  0.74716209  0.71338060  0.30911646    -0.78100
C2499       C  0.74927966  0.71896241  0.33469151     0.82600
N2500       N  0.72894388  0.69248028  0.35043360    -0.78100
C2501       C  0.70601636  0.66014670  0.34184243     0.82700
N2502       N  0.70337591  0.65401424  0.31607815    -0.79800
C2503       C  0.88503684  0.51974490  0.95889195     0.80200
N2504       N  0.85341562  0.00088843  0.97134728    -0.78100
C2505       C  0.85024591  0.00406550  0.99703256     0.82600
N2506       N  0.87699425  0.52191908  0.01022857    -0.78100
C2507       C  0.90729564  0.54568976  0.99912250     0.82700
N2508       N  0.91121924  0.54515638  0.97336912    -0.79800
C2509       C  0.88295294  0.78037859  0.96531283     0.80200
N2510       N  0.85637831  0.78219106  0.97735011    -0.78100
C2511       C  0.85205825  0.77773141  0.00305831     0.82600
N2512       N  0.87307996  0.77028384  0.01632090    -0.78100
C2513       C  0.89810490  0.76656736  0.00484712     0.82700
N2514       N  0.90349040  0.77178325  0.97919876    -0.79800
C2515       C  0.77537432  0.61436666  0.13186604     0.80200
N2516       N  0.81104921  0.63192074  0.13340490    -0.78100
C2517       C  0.82889549  0.61429859  0.13324577     0.82600
N2518       N  0.81058403  0.57864888  0.13153455    -0.78100
C2519       C  0.77495882  0.56045409  0.12994609     0.82700
N2520       N  0.75746344  0.57848978  0.13036330    -0.79800
O2521       O  0.51576919  0.73259012  0.13661654    -0.85400
O2522       O  0.50555159  0.67024186  0.11581221    -0.82400
C2523       C  0.50830207  0.65870221  0.13690017     0.98100
O2524       O  0.48258038  0.64627230  0.15219353    -0.82500
O2525       O  0.92476515  0.64109233  0.17680508    -0.85100
C2526       C  0.93445585  0.66843063  0.19019663     1.02600
O2527       O  0.94223472  0.69723177  0.17981732    -0.77900
O2528       O  0.47891265  0.75045648  0.14536301    -0.78000
C2529       C  0.50976011  0.75553643  0.14566587     1.02600
O2530       O  0.97525684  0.73592816  0.09653183    -0.85400
O2531       O  0.95760647  0.66888326  0.08165643    -0.82400
C2532       C  0.94721792  0.63658758  0.08291386     0.98100
O2533       O  0.94202663  0.62144309  0.10455571    -0.82500
O2534       O  0.88545839  0.61967433  0.12968582    -0.85100
C2535       C  0.86779502  0.63370404  0.13627316     1.02600
O2536       O  0.88281020  0.66419226  0.14594091    -0.77900
O2537       O  0.92132778  0.71249968  0.10911161    -0.78000
C2538       C  0.94470609  0.72906949  0.09241902     1.02500
Cr2539     Cr  0.48591645  0.70056217  0.10953129     1.93700
Cr2540     Cr  0.93473510  0.63533219  0.14014205     1.93200
Cr2541     Cr  0.93258985  0.70426163  0.14411971     1.39100
O2542       O  0.95057144  0.67962057  0.13142468    -1.23100
O2543       O  0.71002208  0.87393521  0.13584360    -0.85400
O2544       O  0.65144833  0.87683945  0.12454095    -0.82400
C2545       C  0.63950966  0.88130713  0.14530807     0.98100
O2546       O  0.65577869  0.90987832  0.15732840    -0.82500
O2547       O  0.71401200  0.96851951  0.17590067    -0.85100
C2548       C  0.73207641  0.95823197  0.18760312     1.02600
O2549       O  0.75035290  0.94857099  0.17513965    -0.77900
O2550       O  0.76542845  0.91367283  0.13734678    -0.78000
C2551       C  0.74096292  0.88227606  0.14093785     1.02600
O2552       O  0.74399531  0.91423237  0.09004037    -0.85400
O2553       O  0.68770245  0.92253273  0.08297960    -0.82400
C2554       C  0.66771941  0.93460353  0.08650566     0.98100
O2555       O  0.66339045  0.94375396  0.10873206    -0.82500
O2556       O  0.72339488  0.00313208  0.12710575    -0.85100
C2557       C  0.75510295  0.02179754  0.13341987     1.02600
O2558       O  0.77128684  0.00730967  0.14181275    -0.77900
O2559       O  0.77626054  0.96903717  0.10168470    -0.78000
C2560       C  0.76705679  0.94546610  0.08478993     1.02500
Cr2561     Cr  0.69980835  0.89994536  0.11007677     1.93700
Cr2562     Cr  0.69140164  0.95499051  0.14122851     1.93200
Cr2563     Cr  0.76245223  0.95809595  0.13829539     1.39100
O2564       O  0.71767943  0.93781900  0.12991949    -1.23100
O2565       O  0.66630043  0.69116966  0.13939106    -0.85400
O2566       O  0.72838644  0.74478181  0.12216943    -0.82400
C2567       C  0.74313036  0.75626793  0.14333017     0.98100
O2568       O  0.75317315  0.73896884  0.15599593    -0.82500
O2569       O  0.75181127  0.68101720  0.17554389    -0.85100
C2570       C  0.72386386  0.66585548  0.18872786     1.02600
O2571       O  0.69461650  0.64791898  0.17801792    -0.77900
O2572       O  0.64256517  0.63463220  0.14322458    -0.78000
C2573       C  0.63989406  0.66183496  0.14415619     1.02600
O2574       O  0.66175226  0.65074869  0.09458012    -0.85400
O2575       O  0.72858953  0.70104108  0.08256046    -0.82400
C2576       C  0.76101925  0.72164967  0.08453484     0.98100
O2577       O  0.77587466  0.72710870  0.10621140    -0.82500
O2578       O  0.77153420  0.66610245  0.12660454    -0.85100
C2579       C  0.75633942  0.63428257  0.13358567     1.02600
O2580       O  0.72556105  0.61967784  0.14303416    -0.77900
O2581       O  0.67737479  0.61339022  0.10657586    -0.78000
C2582       C  0.66229089  0.62288367  0.09096075     1.02500
Cr2583     Cr  0.69750076  0.69518674  0.11131404     1.93700
Cr2584     Cr  0.75971709  0.70123938  0.14018513     1.93200
Cr2585     Cr  0.68741398  0.63223991  0.14199035     1.39100
O2586       O  0.71532306  0.67587910  0.13079806    -1.23100
C2587       C  0.61282096  0.50665000  0.96669482     0.80200
N2588       N  0.61298613  0.97865678  0.98120638    -0.78100
C2589       C  0.61429319  0.97939592  0.00725710     0.82600
N2590       N  0.61650083  0.50521382  0.01825803    -0.78100
C2591       C  0.61387956  0.53111521  0.00729854     0.82700
N2592       N  0.61230549  0.53221866  0.98131223    -0.79800
C2593       C  0.65773858  0.61501156  0.04387742    -0.12300
C2594       C  0.64466762  0.60154055  0.06836390     0.04700
C2595       C  0.61499726  0.56798054  0.07081274    -0.07600
C2596       C  0.60083529  0.54719181  0.04904510    -0.08300
C2597       C  0.61691436  0.55867951  0.02486383    -0.02900
C2598       C  0.64422928  0.59370821  0.02208913     0.03900
N2599       N  0.66090434  0.60681718  0.99788289     0.66400
H2600       H  0.67999288  0.64135355  0.04184089     0.15300
H2601       H  0.57960789  0.52036458  0.05150186     0.15100
N2602       N  0.60014340  0.55399146  0.09538124     0.74200
O2603       O  0.65259728  0.62518948  0.98471450    -0.39300
O2604       O  0.68832047  0.60628562  0.99228256    -0.39200
O2605       O  0.57361603  0.55493850  0.10304405    -0.39900
O2606       O  0.60927387  0.53513033  0.10704831    -0.40000
C2607       C  0.72073656  0.82446919  0.16151139    -0.12300
C2608       C  0.74777901  0.85401583  0.14914926     0.04700
C2609       C  0.77780351  0.85291647  0.14152031    -0.07600
C2610       C  0.77793497  0.82125298  0.14315234    -0.08300
C2611       C  0.74850947  0.79047894  0.15206657    -0.02900
C2612       C  0.72032243  0.79266484  0.16244256     0.03900
N2613       N  0.68968394  0.76210460  0.17180820     0.66400
H2614       H  0.69882371  0.82557849  0.16928055     0.15300
H2615       H  0.79999494  0.82002290  0.13550857     0.15100
N2616       N  0.80671815  0.88232190  0.12950921     0.74200
O2617       O  0.68956775  0.75107015  0.19402914    -0.39300
O2618       O  0.66114822  0.75060059  0.16017268    -0.39200
O2619       O  0.83096523  0.90527195  0.14311759    -0.39900
O2620       O  0.81196078  0.88096504  0.10589762    -0.40000
C2621       C  0.66450835  0.94391905  0.03967234    -0.12300
C2622       C  0.64920268  0.93808817  0.06426407     0.04700
C2623       C  0.61718617  0.93723270  0.06721759    -0.07600
C2624       C  0.60305790  0.94541805  0.04650653    -0.08300
C2625       C  0.62072354  0.95571541  0.02286669    -0.02900
C2626       C  0.65077944  0.95317501  0.01905955     0.03900
N2627       N  0.67001721  0.96405022  0.99550621     0.66400
H2628       H  0.68883208  0.94415865  0.03688892     0.15300
H2629       H  0.57979089  0.94709933  0.04966007     0.15100
N2630       N  0.59940080  0.92968732  0.09136152     0.74200
O2631       O  0.69057253  0.99626331  0.99125595    -0.39300
O2632       O  0.67095781  0.94157505  0.98109500    -0.39200
O2633       O  0.60126737  0.95446846  0.10465672    -0.39900
O2634       O  0.57614155  0.89854092  0.09650745    -0.40000
C2635       C  0.60320655  0.68491293  0.13048080    -0.12300
C2636       C  0.60577736  0.66037460  0.14556754     0.04700
C2637       C  0.57616389  0.63596228  0.15983076    -0.07600
C2638       C  0.54441351  0.63608640  0.15800656    -0.08300
C2639       C  0.54199848  0.66028501  0.14199878    -0.02900
C2640       C  0.57245162  0.68544983  0.12874905     0.03900
N2641       N  0.57284952  0.71193662  0.11297207     0.66400
H2642       H  0.62536064  0.70388429  0.11916323     0.15300
H2643       H  0.52158454  0.61682377  0.16854746     0.15100
N2644       N  0.57820828  0.61185547  0.17668418     0.74200
O2645       O  0.58398028  0.74218674  0.12209923    -0.39300
O2646       O  0.57061913  0.70777045  0.08899696    -0.39200
O2647       O  0.58626980  0.62020087  0.19980984    -0.39900
O2648       O  0.56680534  0.58061975  0.16961578    -0.40000
C2649       C  0.57013800  0.78948978  0.16175142    -0.12300
C2650       C  0.54003437  0.78943890  0.15406365     0.04700
C2651       C  0.54211503  0.82200063  0.15005590    -0.07600
C2652       C  0.57494836  0.85317581  0.15022223    -0.08300
C2653       C  0.60557374  0.85225260  0.15455583    -0.02900
C2654       C  0.60265717  0.82035199  0.16170176     0.03900
N2655       N  0.63299216  0.81812512  0.16610987     0.66400
H2656       H  0.56895820  0.76494522  0.16580483     0.15300
H2657       H  0.57677005  0.87764070  0.14490685     0.15100
N2658       N  0.51186915  0.82360507  0.14345509     0.74200
O2659       O  0.64459347  0.82205781  0.18857765    -0.39300
O2660       O  0.64218583  0.80368793  0.14938088    -0.39200
O2661       O  0.49373720  0.82662778  0.16091602    -0.39900
O2662       O  0.50675285  0.82798458  0.12042809    -0.40000
C2663       C  0.77002545  0.72488008  0.03719548    -0.12300
C2664       C  0.78104139  0.74075741  0.06138251     0.04700
C2665       C  0.81001001  0.77523706  0.06267313    -0.07600
C2666       C  0.82913024  0.79154821  0.04048356    -0.08300
C2667       C  0.82151879  0.77321815  0.01724403    -0.02900
C2668       C  0.79016268  0.74077322  0.01517818     0.03900
N2669       N  0.78139561  0.72133820  0.99177132     0.66400
H2670       H  0.74712227  0.69890554  0.03560486     0.15300
H2671       H  0.85326811  0.81654415  0.04229771     0.15100
N2672       N  0.82137108  0.79372287  0.08638611     0.74200
O2673       O  0.79234798  0.70051692  0.98740120    -0.39300
O2674       O  0.75901554  0.72141442  0.97716420    -0.39200
O2675       O  0.84185449  0.78922711  0.10024023    -0.39900
O2676       O  0.81915353  0.82074094  0.08967706    -0.40000
C2677       C  0.90228260  0.71509756  0.05825731    -0.12300
C2678       C  0.93585634  0.73775101  0.06749360     0.04700
C2679       C  0.95979947  0.76673644  0.05232395    -0.07600
C2680       C  0.94855449  0.77375138  0.02925158    -0.08300
C2681       C  0.91425288  0.75189194  0.02090359    -0.02900
C2682       C  0.89152248  0.72152295  0.03510907     0.03900
N2683       N  0.85592317  0.69909411  0.02765468     0.66400
H2684       H  0.88390690  0.69225724  0.06924164     0.15300
H2685       H  0.96571982  0.79775839  0.01895611     0.15100
N2686       N  0.99436453  0.79097859  0.06100951     0.74200
O2687       O  0.84871086  0.67661356  0.01024282    -0.39300
O2688       O  0.83157730  0.69792949  0.04110293    -0.39200
O2689       O  0.51833823  0.78278937  0.05804838    -0.39900
O2690       O  0.50437227  0.82246857  0.06572548    -0.40000
C2691       C  0.81448976  0.95096349  0.02212186    -0.12300
C2692       C  0.81836105  0.98181592  0.01189065     0.04700
C2693       C  0.80116359  0.99752346  0.02389136    -0.07600
C2694       C  0.78311842  0.98399328  0.04698453    -0.08300
C2695       C  0.78196451  0.95495747  0.05857868    -0.02900
C2696       C  0.79658970  0.93738691  0.04538044     0.03900
N2697       N  0.79779454  0.90878998  0.05670825     0.66400
H2698       H  0.82862494  0.93946123  0.01346591     0.15300
H2699       H  0.77150587  0.99741454  0.05661101     0.15100
N2700       N  0.80489932  0.52327984  0.01108294     0.74200
O2701       O  0.77028219  0.87907686  0.05789373    -0.39300
O2702       O  0.82706188  0.91093989  0.05912312    -0.39200
O2703       O  0.78084174  0.52219976  0.99777980    -0.39900
O2704       O  0.82913455  0.55245465  0.01915233    -0.40000
C2705       C  0.93163388  0.60602700  0.01349993    -0.12300
C2706       C  0.93177986  0.57463301  0.01541048     0.04700
C2707       C  0.94169306  0.56621626  0.03857001    -0.07600
C2708       C  0.94707639  0.58699568  0.06026275    -0.08300
C2709       C  0.94364911  0.61677394  0.05907775    -0.02900
C2710       C  0.93734721  0.62709331  0.03510715     0.03900
N2711       N  0.93221256  0.65626780  0.03298120     0.66400
H2712       H  0.92286059  0.61204590  0.99599701     0.15300
H2713       H  0.95322396  0.57933960  0.07822674     0.15100
N2714       N  0.94302105  0.53469551  0.04071135     0.74200
O2715       O  0.45586369  0.68576645  0.02601389    -0.39300
O2716       O  0.90151101  0.65099319  0.03306699    -0.39200
O2717       O  0.96135187  0.52875683  0.02516730    -0.39900
O2718       O  0.92456203  0.51195580  0.05729653    -0.40000
C2719       C  0.75221162  0.70039327  0.25642775    -0.12300
C2720       C  0.72410037  0.67505240  0.27127462     0.04700
C2721       C  0.69640094  0.64613591  0.25849206    -0.07600
C2722       C  0.69719781  0.64343751  0.23175780    -0.08300
C2723       C  0.72517354  0.66894300  0.21707035    -0.02900
C2724       C  0.75291095  0.69774822  0.22975207     0.03900
N2725       N  0.78103863  0.72573289  0.21582852     0.66400
H2726       H  0.77388422  0.72298049  0.26546346     0.15300
H2727       H  0.67550815  0.62116977  0.22242905     0.15100
N2728       N  0.66665600  0.61967481  0.27201574     0.74200
O2729       O  0.77869886  0.75183337  0.20932703    -0.39300
O2730       O  0.81037574  0.72772929  0.21477743    -0.39200
O2731       O  0.63808323  0.61917957  0.27059298    -0.39900
O2732       O  0.66638856  0.59224955  0.27874431    -0.40000
C2733       C  0.75598983  0.78182588  0.38144429    -0.12300
C2734       C  0.78367349  0.78442279  0.39580685     0.04700
C2735       C  0.80674466  0.77516318  0.38428610    -0.07600
C2736       C  0.79927390  0.75959590  0.35996238    -0.08300
C2737       C  0.76925741  0.75333614  0.34688259    -0.02900
C2738       C  0.74930132  0.76736406  0.35677187     0.03900
N2739       N  0.71898978  0.76209818  0.34342332     0.66400
H2740       H  0.73906507  0.79040862  0.38962108     0.15300
H2741       H  0.81425902  0.74812093  0.35289079     0.15100
N2742       N  0.83511299  0.77708774  0.39828305     0.74200
O2743       O  0.68946177  0.74705792  0.35440512    -0.39300
O2744       O  0.72123127  0.76997753  0.32002479    -0.39200
O2745       O  0.83080174  0.75022339  0.40982283    -0.39900
O2746       O  0.86568856  0.80256080  0.39461631    -0.40000
C2747       C  0.87597307  0.99017953  0.47684855    -0.12300
C2748       C  0.87473671  0.96117116  0.48847812     0.04700
C2749       C  0.90543677  0.96551387  0.49964538    -0.07600
C2750       C  0.93697069  0.99773284  0.49771339    -0.08300
C2751       C  0.94097383  0.52353378  0.48262784    -0.02900
C2752       C  0.90960401  0.52266692  0.47666080     0.03900
N2753       N  0.91007863  0.55348718  0.46814376     0.66400
H2754       H  0.85278480  0.98696252  0.46769267     0.15300
H2755       H  0.96074615  0.99975716  0.50486653     0.15100
N2756       N  0.90591138  0.93622899  0.51030648     0.74200
O2757       O  0.89818016  0.55373517  0.44637255    -0.39300
O2758       O  0.91485041  0.57685700  0.48423347    -0.39200
O2759       O  0.91870622  0.92122067  0.49738951    -0.39900
O2760       O  0.90010096  0.92997029  0.53393262    -0.40000
C2761       C  0.62375417  0.60190576  0.37947323    -0.12300
C2762       C  0.63659151  0.61495216  0.40404700     0.04700
C2763       C  0.67286248  0.63445861  0.40791867    -0.07600
C2764       C  0.69537661  0.64292340  0.38699301    -0.08300
C2765       C  0.68260381  0.63524672  0.36174646    -0.02900
C2766       C  0.64647273  0.61240682  0.35818417     0.03900
N2767       N  0.63206878  0.60222258  0.33320401     0.66400
H2768       H  0.59581999  0.58596081  0.37647679     0.15300
H2769       H  0.72320981  0.65928727  0.39037754     0.15100
N2770       N  0.68721819  0.64826322  0.43260863     0.74200
O2771       O  0.62516826  0.57272439  0.32459109    -0.39300
O2772       O  0.61834141  0.61797317  0.32296643    -0.39200
O2773       O  0.68045577  0.62797595  0.45138793    -0.39900
O2774       O  0.70610814  0.68097268  0.43580002    -0.40000
C2775       C  0.87469343  0.79083765  0.46897799    -0.12300
C2776       C  0.87207592  0.81382660  0.48608623     0.04700
C2777       C  0.89881965  0.83219624  0.50413329    -0.07600
C2778       C  0.93026077  0.83203190  0.50148699    -0.08300
C2779       C  0.93437811  0.81228201  0.48214871    -0.02900
C2780       C  0.90548041  0.78978932  0.46687968     0.03900
N2781       N  0.90784990  0.76826566  0.44742644     0.66400
H2782       H  0.85388825  0.77591153  0.45551206     0.15300
H2783       H  0.95166444  0.84741042  0.51442132     0.15100
N2784       N  0.89355203  0.84908467  0.52582587     0.74200
O2785       O  0.88710134  0.73556103  0.44831567    -0.39300
O2786       O  0.92282252  0.78206144  0.42649364    -0.39200
O2787       O  0.86480586  0.83355663  0.53787542    -0.39900
O2788       O  0.91933690  0.87517709  0.53611460    -0.40000
C2789       C  0.60402970  0.98329207  0.47922808    -0.12300
C2790       C  0.57355987  0.95204616  0.48587417     0.04700
C2791       C  0.54414789  0.95350369  0.49439469    -0.07600
C2792       C  0.54460147  0.98537080  0.49403034    -0.08300
C2793       C  0.57808304  0.51819761  0.48461587    -0.02900
C2794       C  0.60454924  0.01526260  0.47869050     0.03900
N2795       N  0.64095534  0.54888589  0.47269042     0.66400
H2796       H  0.62664243  0.98243600  0.47227074     0.15300
H2797       H  0.52098616  0.98542841  0.49935311     0.15100
N2798       N  0.51264057  0.92233681  0.50163225     0.74200
O2799       O  0.66196807  0.56778857  0.48989418    -0.39300
O2800       O  0.65144058  0.55274303  0.44974311    -0.39200
O2801       O  0.50821082  0.91241631  0.52465612    -0.39900
O2802       O  0.48670087  0.90996347  0.48689864    -0.40000
C2803       C  0.99831001  0.62822399  0.34997200    -0.12300
C2804       C  0.96257853  0.61705748  0.35150411     0.04700
C2805       C  0.94341400  0.59845968  0.37342984    -0.07600
C2806       C  0.96083760  0.59578662  0.39461129    -0.08300
C2807       C  0.99711739  0.61048220  0.39419116    -0.02900
C2808       C  0.51429943  0.62284493  0.37090510     0.03900
N2809       N  0.55094167  0.63576806  0.36865419     0.66400
H2810       H  0.51149241  0.63995882  0.33301908     0.15300
H2811       H  0.94606432  0.58297439  0.41175351     0.15100
N2812       N  0.90668597  0.58535946  0.37541897     0.74200
O2813       O  0.56140814  0.61811579  0.35647065    -0.39300
O2814       O  0.57249457  0.66721329  0.37447780    -0.39200
O2815       O  0.88552572  0.55334955  0.37095460    -0.39900
O2816       O  0.89594955  0.60321611  0.38700957    -0.40000
C2817       C  0.93673065  0.70305354  0.38628280    -0.12300
C2818       C  0.94766950  0.71449148  0.36100702     0.04700
C2819       C  0.97105341  0.75046207  0.35657818    -0.07600
C2820       C  0.48715183  0.77390338  0.37703165    -0.08300
C2821       C  0.97931174  0.76016552  0.40257952    -0.02900
C2822       C  0.95374236  0.72486197  0.40707111     0.03900
N2823       N  0.94640700  0.71000667  0.43227433     0.66400
H2824       H  0.91835877  0.67554855  0.38999587     0.15300
H2825       H  0.50646801  0.80121625  0.37355598     0.15100
N2826       N  0.48435207  0.76422623  0.33095032     0.74200
O2827       O  0.91506738  0.69182994  0.43978972    -0.39300
O2828       O  0.96957502  0.70700690  0.44377521    -0.39200
O2829       O  0.97180126  0.78221728  0.32126379    -0.39900
O2830       O  0.51008757  0.76298493  0.32177811    -0.40000
C2831       C  0.94236850  0.64066771  0.25772989    -0.12300
C2832       C  0.94125935  0.66648123  0.27292965     0.04700
C2833       C  0.93760903  0.69270576  0.26033685    -0.07600
C2834       C  0.93530917  0.69256617  0.23359509    -0.08300
C2835       C  0.93640827  0.66680388  0.21855670    -0.02900
C2836       C  0.94022800  0.64071554  0.23095538     0.03900
N2837       N  0.44867676  0.61821749  0.21650048     0.66400
H2838       H  0.44939545  0.62277083  0.26646357     0.15300
H2839       H  0.93247121  0.71291074  0.22454968     0.15100
N2840       N  0.93679279  0.72024521  0.27408569     0.74200
O2841       O  0.47922749  0.62778319  0.20872062    -0.39300
O2842       O  0.42550736  0.58612079  0.21595369    -0.39200
O2843       O  0.96205061  0.75124623  0.27162782    -0.39900
O2844       O  0.90807617  0.71513410  0.28303671    -0.40000
C2845       C  0.78203348  0.95264838  0.37638258    -0.12300
C2846       C  0.77168748  0.93245237  0.35394797     0.04700
C2847       C  0.77560504  0.90293079  0.35217114    -0.07600
C2848       C  0.78587917  0.89188075  0.37381221    -0.08300
C2849       C  0.79179102  0.90969250  0.39732717    -0.02900
C2850       C  0.79154622  0.94137015  0.39806261     0.03900
N2851       N  0.79990981  0.96199549  0.42083285     0.66400
H2852       H  0.77934800  0.97559462  0.37790800     0.15300
H2853       H  0.78662110  0.86783125  0.37270247     0.15100
N2854       N  0.76572338  0.88188499  0.32954179     0.74200
O2855       O  0.82980221  0.98900543  0.42268942    -0.39300
O2856       O  0.77552692  0.95879953  0.43529566    -0.39200
O2857       O  0.78912390  0.88456202  0.31424661    -0.39900
O2858       O  0.73486948  0.85640012  0.32738875    -0.40000
C2859       C  0.67127274  0.94930642  0.37606463    -0.12300
C2860       C  0.66327006  0.92993253  0.35321012     0.04700
C2861       C  0.63008477  0.89965134  0.35065618    -0.07600
C2862       C  0.60719557  0.88717094  0.37182974    -0.08300
C2863       C  0.61706117  0.90443646  0.39568087    -0.02900
C2864       C  0.64864510  0.93689714  0.39720282     0.03900
N2865       N  0.65865368  0.95713861  0.42025314     0.66400
H2866       H  0.69670152  0.97279480  0.37824797     0.15300
H2867       H  0.58265987  0.86259738  0.37003802     0.15100
N2868       N  0.62087362  0.87924056  0.32772058     0.74200
O2869       O  0.68147615  0.95717398  0.43443927    -0.39300
O2870       O  0.64990516  0.97984932  0.42373925    -0.39200
O2871       O  0.62691002  0.85441710  0.32565184    -0.39900
O2872       O  0.60200436  0.88246705  0.31137808    -0.40000
C2873       C  0.70803341  0.95984171  0.25815761    -0.12300
C2874       C  0.72760585  0.94735435  0.27041171     0.04700
C2875       C  0.75035190  0.94093079  0.25521554    -0.07600
C2876       C  0.75196473  0.94559881  0.22862433    -0.08300
C2877       C  0.73158161  0.95696538  0.21623989    -0.02900
C2878       C  0.70997590  0.96493130  0.23152834     0.03900
N2879       N  0.68957389  0.97800223  0.22046606     0.66400
H2880       H  0.69100804  0.96582704  0.26929113     0.15300
H2881       H  0.76896798  0.93950016  0.21756807     0.15100
N2882       N  0.77107922  0.92820941  0.26616944     0.74200
O2883       O  0.65794813  0.95702256  0.21509915    -0.39300
O2884       O  0.70112220  0.01058158  0.22041050    -0.39200
O2885       O  0.75932533  0.89561933  0.26685274    -0.39900
O2886       O  0.80312011  0.94922215  0.27022881    -0.40000
C2887       C  0.77015565  0.80612550  0.56499397    -0.12300
C2888       C  0.76361439  0.82950072  0.55136707     0.04700
C2889       C  0.75579823  0.85212839  0.56540723    -0.07600
C2890       C  0.75644663  0.85217986  0.59211791    -0.08300
C2891       C  0.76459142  0.83004754  0.60569407    -0.02900
C2892       C  0.77043866  0.80602156  0.59185582     0.03900
N2893       N  0.77810286  0.78233741  0.60460947     0.66400
H2894       H  0.77572031  0.78812006  0.55479691     0.15300
H2895       H  0.75108875  0.87034923  0.60230907     0.15100
N2896       N  0.74800679  0.87600210  0.55303343     0.74200
O2897       O  0.75368173  0.75158518  0.60951016    -0.39300
O2898       O  0.80944612  0.78991635  0.60674369    -0.39200
O2899       O  0.71666790  0.86870520  0.55167653    -0.39900
O2900       O  0.77239414  0.90677148  0.54812193    -0.40000
C2901       C  0.60926734  0.53211459  0.89718242    -0.12300
C2902       C  0.60077505  0.50100739  0.88412619     0.04700
C2903       C  0.59531947  0.47172601  0.89843137    -0.07600
C2904       C  0.59944261  0.47430785  0.92506485    -0.08300
C2905       C  0.60880530  0.50568593  0.93824114    -0.02900
C2906       C  0.61349410  0.53479428  0.92386167     0.03900
N2907       N  0.60633691  0.05838273  0.93750950     0.66400
H2908       H  0.61412623  0.55508181  0.88649852     0.15300
H2909       H  0.59481525  0.45124520  0.93547828     0.15100
N2910       N  0.58445257  0.43876543  0.88630230     0.74200
O2911       O  0.65679744  0.59020368  0.93689549    -0.39300
O2912       O  0.57843931  0.05903644  0.94032368    -0.39200
O2913       O  0.60526317  0.42735220  0.88476513    -0.39900
O2914       O  0.55266736  0.41880652  0.88080798    -0.40000
C2915       C  0.76692365  0.67113793  0.83499123    -0.12300
C2916       C  0.76694730  0.69961901  0.82347226     0.04700
C2917       C  0.73489971  0.69512910  0.81487051    -0.07600
C2918       C  0.70445927  0.66164439  0.81560548    -0.08300
C2919       C  0.70578932  0.63222973  0.82379693    -0.02900
C2920       C  0.73681187  0.63761811  0.83501132     0.03900
N2921       N  0.73896119  0.60867438  0.84444914     0.66400
H2922       H  0.79128690  0.67419755  0.84170693     0.15300
H2923       H  0.68047211  0.65813190  0.80771421     0.15100
N2924       N  0.73363116  0.72343851  0.80302714     0.74200
O2925       O  0.74948043  0.59315506  0.82978794    -0.39300
O2926       O  0.73639583  0.60277146  0.86820445    -0.39200
O2927       O  0.73034545  0.72357662  0.77907271    -0.39900
O2928       O  0.72979494  0.74482721  0.81671973    -0.40000
C2929       C  0.91204724  0.78334625  0.89567083    -0.12300
C2930       C  0.89471890  0.79832258  0.88339522     0.04700
C2931       C  0.87484882  0.80852508  0.89856087    -0.07600
C2932       C  0.87187952  0.80270881  0.92498774    -0.08300
C2933       C  0.88829398  0.78677970  0.93719237    -0.02900
C2934       C  0.90900446  0.77744140  0.92215672     0.03900
N2935       N  0.92601574  0.76062443  0.93310556     0.66400
H2936       H  0.92739124  0.77513458  0.88458463     0.15300
H2937       H  0.85631424  0.81073451  0.93597467     0.15100
N2938       N  0.85684260  0.82425108  0.88752807     0.74200
O2939       O  0.90938067  0.72774303  0.93581279    -0.39300
O2940       O  0.95878783  0.77753771  0.93571550    -0.39200
O2941       O  0.82427160  0.80602093  0.88409860    -0.39900
O2942       O  0.87211590  0.85717909  0.88551364    -0.40000
C2943       C  0.79808138  0.78212962  0.68755341    -0.12300
C2944       C  0.77321784  0.79164731  0.69354535     0.04700
C2945       C  0.76364898  0.79147709  0.71944874    -0.07600
C2946       C  0.78238789  0.78700473  0.73879986    -0.08300
C2947       C  0.81001545  0.78138615  0.73301649    -0.02900
C2948       C  0.81646201  0.77686545  0.70701559     0.03900
N2949       N  0.84339942  0.76979999  0.69986346     0.66400
H2950       H  0.80601601  0.78250122  0.66780330     0.15300
H2951       H  0.77584894  0.78907758  0.75852743     0.15100
N2952       N  0.73722218  0.79939635  0.72646886     0.74200
O2953       O  0.83548419  0.73876209  0.69471349    -0.39300
O2954       O  0.87325884  0.79484020  0.69370466    -0.39200
O2955       O  0.70570461  0.77493206  0.72733902    -0.39900
O2956       O  0.74586660  0.82824989  0.73724236    -0.40000
C2957       C  0.88147871  0.63186624  0.82201114    -0.12300
C2958       C  0.90722266  0.63097802  0.80684889     0.04700
C2959       C  0.93393198  0.66227520  0.79568679    -0.07600
C2960       C  0.93289865  0.69320644  0.79826598    -0.08300
C2961       C  0.90555262  0.69342991  0.81181207    -0.02900
C2962       C  0.88089008  0.66301366  0.82506612     0.03900
N2963       N  0.85486346  0.66337091  0.84128294     0.66400
H2964       H  0.86141793  0.60806840  0.83116032     0.15300
H2965       H  0.95183382  0.71629146  0.78777577     0.15100
N2966       N  0.95962515  0.66212186  0.77906039     0.74200
O2967       O  0.82374746  0.63806201  0.84087352    -0.39300
O2968       O  0.86353045  0.68755588  0.85756858    -0.39200
O2969       O  0.95348645  0.65656143  0.75543517    -0.39900
O2970       O  0.99029948  0.67370880  0.78702945    -0.40000
C2971       C  0.71460093  0.97145539  0.79083549    -0.12300
C2972       C  0.70973674  0.48679678  0.81097265     0.04700
C2973       C  0.73419630  0.49746647  0.83090485    -0.07600
C2974       C  0.76562039  0.49733348  0.82707095    -0.08300
C2975       C  0.77258105  0.48620525  0.80357356    -0.02900
C2976       C  0.74554027  0.97126732  0.78731943     0.03900
N2977       N  0.75017633  0.95752186  0.76390272     0.66400
H2978       H  0.69625563  0.96325006  0.77518109     0.15300
H2979       H  0.78512119  0.50726225  0.84199371     0.15100
N2980       N  0.72716910  0.50812309  0.85502796     0.74200
O2981       O  0.74499763  0.92674869  0.76389819    -0.39300
O2982       O  0.74821353  0.97079280  0.74312230    -0.39200
O2983       O  0.70271474  0.48598834  0.86914030    -0.39900
O2984       O  0.74556185  0.53945986  0.86245074    -0.40000
C2985       C  0.86475016  0.99044163  0.91785310    -0.12300
C2986       C  0.88939634  0.51856273  0.93051951     0.04700
C2987       C  0.91980240  0.54383170  0.91716032    -0.07600
C2988       C  0.92202133  0.54185442  0.89047658    -0.08300
C2989       C  0.89470165  0.51503864  0.87635189    -0.02900
C2990       C  0.86775072  0.98711514  0.89136009     0.03900
N2991       N  0.84217787  0.95562347  0.87903737     0.66400
H2992       H  0.84370134  0.96864764  0.92816912     0.15300
H2993       H  0.94543826  0.56161972  0.88073906     0.15100
N2994       N  0.94868542  0.57201853  0.93014652     0.74200
O2995       O  0.84566851  0.92909058  0.87894366    -0.39300
O2996       O  0.81340814  0.95237494  0.87253013    -0.39200
O2997       O  0.97469982  0.56929008  0.93590883    -0.39900
O2998       O  0.95088829  0.60151021  0.93170716    -0.40000
C2999       C  0.79966524  0.94154542  0.71584020    -0.12300
C3000       C  0.83453339  0.95364068  0.72113953     0.04700
C3001       C  0.85435748  0.94592398  0.70395656    -0.07600
C3002       C  0.83751668  0.92361428  0.68318567    -0.08300
C3003       C  0.80117986  0.90779955  0.68026802    -0.02900
C3004       C  0.78230434  0.91805476  0.69617315     0.03900
N3005       N  0.74520406  0.90205663  0.69410322     0.66400
H3006       H  0.78453222  0.94965020  0.72871335     0.15300
H3007       H  0.85198310  0.91490817  0.67134787     0.15100
N3008       N  0.89033522  0.95748550  0.70870206     0.74200
O3009       O  0.72550730  0.87298384  0.70487234    -0.39300
O3010       O  0.73242133  0.92010123  0.68649340    -0.39200
O3011       O  0.89878749  0.94935191  0.72941030    -0.39900
O3012       O  0.91241173  0.97002839  0.69063448    -0.40000
C3013       C  0.48066937  0.83240873  0.69440601    -0.12300
C3014       C  0.99099247  0.80427477  0.68588512     0.04700
C3015       C  0.97547143  0.77125949  0.69770352    -0.07600
C3016       C  0.95323895  0.76440082  0.71886437    -0.08300
C3017       C  0.94761777  0.79072325  0.72886325    -0.02900
C3018       C  0.96118558  0.82276264  0.71575023     0.03900
N3019       N  0.95632926  0.85036840  0.72521828     0.66400
H3020       H  0.49290298  0.85856709  0.68631959     0.15300
H3021       H  0.94246765  0.73942879  0.72860294     0.15100
N3022       N  0.98421984  0.74572444  0.68979666     0.74200
O3023       O  0.47823948  0.87506240  0.74137182    -0.39300
O3024       O  0.93452940  0.85631278  0.71457219    -0.39200
O3025       O  0.00757213  0.74332020  0.70154070    -0.39900
O3026       O  0.96433423  0.72161540  0.67462612    -0.40000
C3027       C  0.60629383  0.95166350  0.71055821    -0.11100
C3028       C  0.61670379  0.94207798  0.73279661     0.04700
C3029       C  0.62464586  0.91508316  0.73159721    -0.07600
C3030       C  0.61902586  0.89617457  0.70876653    -0.08300
C3031       C  0.60457138  0.90298546  0.68738248    -0.02900
C3032       C  0.60004933  0.93227238  0.68791075     0.03900
N3033       N  0.58481244  0.93977978  0.66673650     0.66400
H3034       H  0.60120816  0.97312343  0.71116045     0.15300
H3035       H  0.62164887  0.87314956  0.70881126     0.15100
N3036       N  0.63539369  0.90447251  0.75387606     0.74200
O3037       O  0.55197469  0.92474355  0.66507786    -0.39300
O3038       O  0.60379110  0.96575742  0.65258553    -0.39200
O3039       O  0.61584679  0.89410635  0.77346478    -0.39900
O3040       O  0.66084847  0.89939912  0.75239973    -0.40000
C3041       C  0.52517740  0.81846260  0.59180931    -0.12300
C3042       C  0.55663490  0.84073873  0.60457493     0.04700
C3043       C  0.58771240  0.85887730  0.58982582    -0.07600
C3044       C  0.58667587  0.85419390  0.56316917    -0.08300
C3045       C  0.55508237  0.83202545  0.55047460    -0.02900
C3046       C  0.52403349  0.81409750  0.56527231     0.03900
N3047       N  0.49079629  0.79170546  0.55378865     0.66400
H3048       H  0.50077610  0.80434140  0.60238984     0.15300
H3049       H  0.61084265  0.86854596  0.55233814     0.15100
N3050       N  0.62056905  0.88226956  0.60140684     0.74200
O3051       O  0.48028638  0.75958001  0.55067149    -0.39300
O3052       O  0.46961576  0.80246510  0.55118716    -0.39200
O3053       O  0.64192765  0.87208135  0.60546007    -0.39900
O3054       O  0.63078363  0.91451692  0.60294226    -0.40000
C3055       C  0.63397811  0.63532698  0.71056978    -0.12300
C3056       C  0.61923855  0.61606737  0.68807690     0.04700
C3057       C  0.61295423  0.58156549  0.68624109    -0.07600
C3058       C  0.61820533  0.56591812  0.70768610    -0.08300
C3059       C  0.62891818  0.58402084  0.73108505    -0.02900
C3060       C  0.63850243  0.61949403  0.73202422     0.03900
N3061       N  0.65335319  0.63983293  0.75457949     0.66400
H3062       H  0.63912445  0.66195582  0.71220900     0.15300
H3063       H  0.61150509  0.53875805  0.70656602     0.15100
N3064       N  0.59704424  0.56067472  0.66401361     0.74200
O3065       O  0.68498454  0.65087443  0.75959606    -0.39300
O3066       O  0.63590707  0.64912692  0.76828436    -0.39200
O3067       O  0.61502825  0.55368774  0.64891775    -0.39900
O3068       O  0.56420645  0.54442510  0.66188051    -0.40000
C3069       C  0.98649895  0.60245360  0.68322065    -0.12300
C3070       C  0.52075182  0.62928665  0.69045420     0.04700
C3071       C  0.52719482  0.64037215  0.71631109    -0.07600
C3072       C  0.00145014  0.62265621  0.73453131    -0.08300
C3073       C  0.96904047  0.59392029  0.72806834    -0.02900
C3074       C  0.96066970  0.58507106  0.70207920     0.03900
N3075       N  0.92715042  0.55669836  0.69478006     0.66400
H3076       H  0.98109366  0.59290218  0.66367638     0.15300
H3077       H  0.00746122  0.63051838  0.75439413     0.15100
N3078       N  0.56050797  0.66862257  0.72416765     0.74200
O3079       O  0.92469001  0.52937135  0.68510598    -0.39300
O3080       O  0.90184971  0.56186624  0.69289211    -0.39200
O3081       O  0.56631580  0.69958846  0.72323297    -0.39900
O3082       O  0.58026933  0.66221763  0.73731197    -0.40000
C3083       C  0.60042124  0.63942284  0.56353466    -0.12300
C3084       C  0.56884183  0.63015415  0.55132213     0.04700
C3085       C  0.53907975  0.62130139  0.56651579    -0.07600
C3086       C  0.54143041  0.62212827  0.59333302    -0.08300
C3087       C  0.57302149  0.63122405  0.60563690    -0.02900
C3088       C  0.60281195  0.64005471  0.59028537     0.03900
N3089       N  0.63598376  0.65055879  0.60140329     0.66400
H3090       H  0.62362620  0.64637134  0.55219148     0.15300
H3091       H  0.51802998  0.61467819  0.60455641     0.15100
N3092       N  0.00461520  0.60654875  0.55477343     0.74200
O3093       O  0.64502107  0.62808692  0.60463609    -0.39300
O3094       O  0.65865448  0.68275081  0.60294308    -0.39200
O3095       O  0.98528573  0.57405662  0.55083728    -0.39900
O3096       O  0.49463383  0.62984430  0.55197944    -0.40000
loop_ 
_geom_bond_atom_site_label_1 
_geom_bond_atom_site_label_2 
_geom_bond_distance 
_geom_bond_site_symmetry_2 
_ccdc_geom_bond_type 
C1            N2   1.370       .  A
C1            N6   1.370       .  A
C1          C765   1.496       .  S
N2            C3   1.363       .  A
C3            N4   1.345       .  A
C3          C748   1.477       .  S
N4            C5   1.342       .  A
C5            N6   1.361       .  A
C5          C734   1.471       .  S
C7            N8   1.374       .  A
C7           N12   1.369       .  A
C7          C720   1.500       .  S
N8            C9   1.365       .  A
C9           N10   1.343       .  A
C9          C709   1.475       .  S
N10          C11   1.342       .  A
C11          N12   1.353       .  A
C11        C2240   1.462   1_455  S
C13          N14   1.364       .  A
C13          N18   1.369       .  A
C13          C33   1.491       .  S
N14          C15   1.361       .  A
C15          N16   1.370       .  A
C15          C55   1.496       .  S
N16          C17   1.369       .  A
C17          N18   1.368       .  A
C17        C1625   1.507       .  S
O19         Cr37   2.000       .  S
O19          C27   1.260   1_545  A
O20         Cr37   1.979       .  S
O20          C21   1.262       .  A
C21         C636   1.474       .  S
C21          O22   1.269       .  A
O22         Cr38   2.019       .  S
O23         Cr38   1.972       .  S
O23          C24   1.262       .  A
C24         C667   1.490       .  S
C24          O25   1.266   1_545  A
O25        Cr813   2.006       .  S
O26         Cr39   2.005       .  S
O26         C801   1.258       .  A
C27         C653   1.489       .  S
C27         O800   1.259       .  A
O28        Cr811   1.954       .  S
O28          C36   1.256       .  A
O29         Cr37   1.993       .  S
O29          C30   1.259       .  A
C30         C751   1.466       .  S
C30          O31   1.262       .  A
O31         Cr38   1.984       .  S
O32         Cr38   2.022       .  S
O32         C807   1.267   1_545  A
C33          O34   1.263       .  A
C33         O806   1.268       .  A
O34         Cr39   1.991       .  S
O35         Cr39   2.021       .  S
O35          C36   1.272       .  A
C36         C678   1.456       .  S
Cr37        O802   1.957       .  S
Cr37         O40   1.775       .  S
Cr38         O40   1.774       .  S
Cr39        O799   1.999       .  S
Cr39        O814   1.775       .  S
O40        Cr813   1.777   1_545  S
O41         Cr59   1.975       .  S
O41          C49   1.257       .  A
O42         Cr59   1.982       .  S
O42          C43   1.258       .  A
C43         C594   1.484       .  S
C43          O44   1.264       .  A
O44         Cr60   2.018       .  S
O45         Cr60   2.022       .  S
O45          C46   1.273       .  A
C46         C608   1.492       .  S
C46          O47   1.265       .  A
O47         Cr61   1.971       .  S
O48         Cr61   2.019       .  S
O48          C49   1.265       .  A
C49         C639   1.471       .  S
O50         Cr59   1.996       .  S
O50          C58   1.261       .  A
O51         Cr59   1.957       .  S
O51          C52   1.256       .  A
C52         C625   1.484       .  S
C52          O53   1.276       .  A
O53         Cr60   2.030       .  S
O54         Cr60   2.021       .  S
O54          C55   1.269       .  A
C55          O56   1.262       .  A
O56         Cr61   2.003       .  S
O57         Cr61   1.977       .  S
O57          C58   1.262       .  A
C58         C695   1.472       .  S
Cr59         O62   1.771       .  S
Cr60         O62   1.772       .  S
Cr61         O62   1.774       .  S
O63         Cr81   1.986       .  S
O63          C71   1.255       .  A
O64         Cr81   1.975       .  S
O64          C65   1.257   1_545  A
C65         C650   1.470       .  S
C65         O840   1.270       .  A
O66         Cr82   2.025       .  S
O66         C839   1.267       .  A
O67         Cr82   1.976       .  S
O67         C842   1.265       .  A
C68         C580   1.489       .  S
C68          O69   1.272   1_565  A
C68         O841   1.260       .  A
O69         Cr83   2.016       .  S
O70         Cr83   2.015       .  S
O70          C71   1.262       .  A
C71         C597   1.488       .  S
O72         Cr81   1.960       .  S
O72          C80   1.259       .  A
O73        Cr855   2.008       .  S
O73          C74   1.264       .  A
C74         C706   1.475       .  S
C74          O75   1.266       .  A
O75         Cr82   1.992       .  S
O76         Cr82   2.026       .  S
O76          C77   1.267       .  A
C77        C1565   1.505       .  S
C77         O852   1.265       .  A
O78         Cr83   2.014       .  S
O78         C851   1.267   1_545  A
O79         Cr83   2.032       .  S
O79          C80   1.277       .  A
C80         C737   1.474       .  S
Cr81        O847   2.000   1_545  S
Cr81         O84   1.773       .  S
Cr82        O858   1.783       .  S
Cr83         O84   1.779       .  S
O84        Cr856   1.778   1_545  S
C85          N86   1.370       .  A
C85          N90   1.366       .  A
C85         C569   1.491       .  S
N86          C87   1.363       .  A
C87          N88   1.344       .  A
C87         C622   1.466       .  S
N88          C89   1.340       .  A
C89          N90   1.351       .  A
C89         C681   1.454       .  S
C91          N92   1.372       .  A
C91          N96   1.368       .  A
C91         C552   1.494       .  S
N92          C93   1.362       .  A
C93          N94   1.343       .  A
C93         C538   1.471       .  S
N94          C95   1.342       .  A
C95          N96   1.357       .  A
C95         C524   1.468       .  S
C97          N98   1.371       .  A
C97         N102   1.373       .  A
C97         C510   1.495       .  S
N98          C99   1.361       .  A
C99         N100   1.343       .  A
C99         C496   1.478       .  S
N100        C101   1.339       .  A
C101        N102   1.360       .  A
C101        C482   1.469       .  S
C103        N104   1.369       .  A
C103        N108   1.364       .  A
C103        C123   1.493       .  S
N104        C105   1.367       .  A
C105        N106   1.366       .  A
C105        C145   1.506       .  S
N106        C107   1.370       .  A
C107        N108   1.363       .  A
C107        C167   1.493       .  S
O109      Cr1675   1.967       .  S
O109        C117   1.256       .  A
O110       Cr127   1.992       .  S
O110        C111   1.260       .  A
C111        C468   1.478       .  S
C111        O112   1.261       .  A
O112       Cr128   2.003       .  S
O113       Cr128   2.018       .  S
O113        C114   1.270       .  A
C114        C723   1.493       .  S
C114        O115   1.261       .  A
O115       Cr129   1.974       .  S
O116      Cr1677   2.025       .  S
O116        C117   1.266       .  A
C117        C457   1.471       .  S
O118       Cr127   1.990   1_655  S
O118        C126   1.261   1_655  A
O119       Cr127   1.960       .  S
O119        C120   1.257       .  A
C120        C541   1.484       .  S
C120        O121   1.273       .  A
O121       Cr128   2.030       .  S
O122       Cr128   2.002       .  S
O122        C123   1.266       .  A
C123        O124   1.268       .  A
O124       Cr129   2.020       .  S
O125       Cr129   1.972       .  S
O125        C126   1.260       .  A
C126       C2047   1.464   1_455  S
Cr127      O1657   1.967   1_455  S
Cr127       O130   1.771       .  S
Cr128       O130   1.778       .  S
Cr129      O1664   2.025   1_455  S
Cr129       O130   1.778       .  S
O131       Cr149   1.976       .  S
O131        C139   1.263       .  A
O132      Cr1697   2.005       .  S
O132        C133   1.259       .  A
C133        C429   1.483       .  S
C133        O134   1.259       .  A
O134      Cr1698   2.001       .  S
O135       Cr150   2.032       .  S
O135        C136   1.273       .  A
C136        C762   1.497       .  S
C136        O137   1.262       .  A
O137       Cr151   1.969       .  S
O138       Cr151   2.040       .  S
O138        C139   1.273       .  A
C139        C471   1.492       .  S
O140       Cr149   1.996       .  S
O140        C148   1.259       .  A
O141       Cr149   1.960       .  S
O141        C142   1.256       .  A
C142       C2033   1.479   1_455  S
C142        O143   1.278       .  A
O143       Cr150   2.041       .  S
O144       Cr150   1.999       .  S
O144        C145   1.264       .  A
C145        O146   1.272       .  A
O146       Cr151   2.040       .  S
O147       Cr151   1.979       .  S
O147        C148   1.263       .  A
C148        C440   1.471       .  S
Cr149      O1680   2.007   1_455  S
Cr149       O152   1.779       .  S
Cr150      O1682   2.000   1_455  S
Cr150       O152   1.781       .  S
Cr151       O152   1.774       .  S
O153       Cr171   1.979       .  S
O153        C161   1.255       .  A
O154       Cr171   1.983       .  S
O154        C155   1.259       .  A
C155        C454   1.472       .  S
C155        O156   1.265       .  A
O156       Cr172   2.010       .  S
O157       Cr172   1.974       .  S
O157        C158   1.265       .  A
C158        C566   1.484       .  S
C158        O159   1.270       .  A
O159       Cr173   2.006       .  S
O160       Cr173   2.010       .  S
O160        C161   1.262       .  A
C161        C426   1.478       .  S
O162       Cr171   1.965       .  S
O162        C170   1.261       .  A
O163       Cr171   1.999       .  S
O163        C164   1.261       .  A
C164        C412   1.470       .  S
C164        O165   1.263       .  A
O165       Cr172   1.989       .  S
O166       Cr172   1.997       .  S
O166        C167   1.259       .  A
C167        O168   1.268       .  A
O168       Cr173   2.018       .  S
O169       Cr173   2.020       .  S
O169        C170   1.273       .  A
C170        C527   1.479       .  S
Cr171       O174   1.775       .  S
Cr172       O174   1.774       .  S
Cr173       O174   1.776       .  S
C175        N176   1.366       .  A
C175        N180   1.374       .  A
C175        C398   1.492       .  S
N176        C177   1.346       .  A
C177        N178   1.336       .  A
C177        C415   1.455       .  S
N178        C179   1.346       .  A
C179        N180   1.366       .  A
C179        C443   1.481       .  S
C181        N186   1.364       .  A
C181        N956   1.371       .  A
C181        C664   1.490       .  S
N182        C183   1.359       .  A
N182        C955   1.371       .  A
C183        N958   1.343   1_556  A
C183        C370   1.464   1_556  S
N184        C185   1.344   1_554  A
N184        C957   1.344   1_554  A
C185        N186   1.353       .  A
C185        C384   1.457   1_556  S
C187        N188   1.371       .  A
C187        N192   1.370       .  A
C187        C611   1.490       .  S
N188        C189   1.360   1_556  A
C189        N190   1.341       .  A
C189        C345   1.465       .  S
N190        C191   1.339       .  A
C191        N192   1.357   1_554  A
C191        C359   1.462       .  S
C193        N194   1.366       .  A
C193        N198   1.370       .  A
C193        C257   1.501       .  S
N194        C195   1.366       .  A
C195        N196   1.363       .  A
C195        C213   1.494       .  S
N196        C197   1.365       .  A
C197        N198   1.369       .  A
C197       C1009   1.497       .  S
O199       Cr217   1.958   1_455  S
O199        C207   1.261       .  A
O200       Cr217   1.975   1_455  S
O200        C201   1.253       .  A
C201        C317   1.492       .  S
C201        O202   1.263   1_455  A
O202      Cr1766   2.021       .  S
O203       Cr218   2.010       .  S
O203        C204   1.268       .  A
C204        C513   1.494       .  S
C204        O205   1.264       .  A
O205       Cr219   1.976       .  S
O206      Cr1767   2.037       .  S
O206        C207   1.271   1_655  A
C207        C328   1.482       .  S
O208      Cr1765   1.990       .  S
O208        C216   1.253       .  A
O209      Cr1765   1.958       .  S
O209        C210   1.260       .  A
C210        C387   1.477       .  S
C210        O211   1.276       .  A
O211       Cr218   2.028       .  S
O212       Cr218   2.006       .  S
O212        C213   1.267       .  A
C213        O214   1.267       .  A
O214       Cr219   2.013       .  S
O215       Cr219   1.987       .  S
O215        C216   1.261       .  A
C216        C356   1.475       .  S
Cr217      O1756   1.991       .  S
Cr217      O1757   1.958       .  S
Cr217      O1768   1.767       .  S
Cr218      O1750   2.021       .  S
Cr218       O220   1.775       .  S
Cr219      O1754   2.038       .  S
Cr219       O220   1.771       .  S
O220      Cr1765   1.766       .  S
O221       Cr239   1.978       .  S
O221        C229   1.260       .  A
O222       Cr239   1.992       .  S
O222        C223   1.260       .  A
C223        C331   1.475       .  S
C223        O224   1.258       .  A
O224       Cr240   1.992       .  S
O225       Cr240   2.014       .  S
O225        C226   1.271       .  A
C226        C555   1.493       .  S
C226        O227   1.267       .  A
O227       Cr241   1.975       .  S
O228       Cr241   2.038       .  S
O228        C229   1.269       .  A
C229        C286   1.498       .  S
O230       Cr239   2.010       .  S
O230        C238   1.262       .  A
O231       Cr239   1.966       .  S
O231        C232   1.259       .  A
C232        C300   1.478       .  S
C232        O233   1.273       .  A
O233       Cr240   2.024       .  S
O234       Cr240   2.007       .  S
O234        C235   1.264       .  A
C235        C971   1.497       .  S
C235        O236   1.265       .  A
O236       Cr241   2.015       .  S
O237       Cr241   1.988       .  S
O237        C238   1.264       .  A
C238        C373   1.478       .  S
Cr239       O242   1.777       .  S
Cr240       O242   1.783       .  S
Cr241       O242   1.774       .  S
O243       Cr261   1.952       .  S
O243        C251   1.253       .  A
O244       Cr261   1.987       .  S
O244        C245   1.256       .  A
C245        C289   1.478       .  S
C245        O246   1.260       .  A
O246       Cr262   2.008       .  S
O247       Cr262   2.006       .  S
O247        C248   1.269       .  A
C248        C401   1.478       .  S
C248        O249   1.262       .  A
O249       Cr263   1.971       .  S
O250       Cr263   2.055       .  S
O250        C251   1.270       .  A
C251        C314   1.485       .  S
O252       Cr261   1.998       .  S
O252        C260   1.260       .  A
O253       Cr261   1.955       .  S
O253        C254   1.258       .  A
C254        C342   1.483       .  S
C254        O255   1.276       .  A
O255       Cr262   2.037       .  S
O256       Cr262   2.004       .  S
O256        C257   1.268       .  A
C257        O258   1.271       .  A
O258       Cr263   2.033       .  S
O259       Cr263   1.978       .  S
O259        C260   1.262       .  A
C260        C272   1.458       .  S
Cr261       O264   1.763       .  S
Cr262       O264   1.772       .  S
Cr263       O264   1.783       .  S
C265        N270   1.365       .  A
C265       N1040   1.372   1_545  A
C265        C583   1.496       .  S
N266        C267   1.358   1_556  A
N266       C1039   1.370       .  A
C267       N1042   1.341       .  A
C267        C303   1.468       .  S
N268        C269   1.342       .  A
N268       C1041   1.344   1_545  A
C269        N270   1.355   1_554  A
C269        C275   1.460       .  S
C271        C272   1.400       .  A
C271        C276   1.399       .  A
C271        H278   1.084       .  S
C272        C273   1.404       .  A
C273        C274   1.396       .  A
C273        N280   1.429       .  S
C274        C275   1.404       .  A
C274        H279   1.084       .  S
C275        C276   1.409       .  A
C276        N277   1.429       .  S
N277        O281   1.261   1_554  A
N277        O282   1.262   1_554  A
N280        O284   1.262       .  A
N280        O283   1.262       .  A
C285        C286   1.401       .  A
C285        C290   1.398       .  A
C285        H292   1.071       .  S
C286        C287   1.413       .  A
C287        C288   1.411       .  A
C287        N294   1.426       .  S
C288        C289   1.404       .  A
C288        H293   1.082       .  S
C289        C290   1.406       .  A
C290        N291   1.430       .  S
N291        O295   1.262       .  A
N291        O296   1.262       .  A
N294        O298   1.260       .  A
N294        O297   1.261       .  A
C299        C300   1.407       .  A
C299        C304   1.404       .  A
C299        H306   1.084       .  S
C300        C301   1.408       .  A
C301        C302   1.397       .  A
C301        N308   1.430       .  S
C302        C303   1.404       .  A
C302        H307   1.085       .  S
C303        C304   1.409       .  A
C304        N305   1.430   1_554  S
N305        O309   1.262       .  A
N305        O310   1.262       .  A
N308        O312   1.262       .  A
N308        O311   1.262       .  A
C313        C314   1.399       .  A
C313        C318   1.384       .  A
C313        H320   1.085       .  S
C314        C315   1.412       .  A
C315        C316   1.418       .  A
C315        N322   1.427       .  S
C316        C317   1.412       .  A
C316        H321   1.083       .  S
C317        C318   1.417       .  A
C318        N319   1.431       .  S
N319        O323   1.261       .  A
N319        O324   1.262       .  A
N322        O326   1.262       .  A
N322        O325   1.262       .  A
C327        C328   1.399       .  A
C327        C332   1.391       .  A
C327        H334   1.085       .  S
C328        C329   1.414       .  A
C329        C330   1.410       .  A
C329        N336   1.427       .  S
C330        C331   1.404       .  A
C330        H335   1.084       .  S
C331        C332   1.404       .  A
C332        N333   1.421       .  S
N333        O337   1.262       .  A
N333        O338   1.262       .  A
N336        O340   1.261       .  A
N336        O339   1.262   1_455  A
C341        C342   1.408       .  A
C341        C346   1.402       .  A
C341        H348   1.084       .  S
C342        C343   1.411       .  A
C343        C344   1.399       .  A
C343        N350   1.428       .  S
C344        C345   1.404       .  A
C344        H349   1.085       .  S
C345        C346   1.408       .  A
C346        N347   1.429   1_554  S
N347        O351   1.262       .  A
N347        O352   1.262       .  A
N350        O354   1.261       .  A
N350        O353   1.262       .  A
C355        C356   1.398       .  A
C355        C360   1.391       .  A
C355        H362   1.084       .  S
C356        C357   1.417       .  A
C357        C358   1.405       .  A
C357        N364   1.429       .  S
C358        C359   1.399       .  A
C358        H363   1.084       .  S
C359        C360   1.412       .  A
C360        N361   1.431       .  S
N361        O365   1.261       .  A
N361        O366   1.262       .  A
N364       O1916   1.262       .  A
N364       O1915   1.262       .  A
O367       N1912   1.262   1_455  A
O368       N1912   1.262       .  A
C369        C370   1.399       .  A
C369        C374   1.405       .  A
C369        H376   1.084       .  S
C370        C371   1.409       .  A
C371        C372   1.398       .  A
C371       N1152   1.430       .  S
C372        C373   1.402       .  A
C372        H377   1.084       .  S
C373        C374   1.414       .  A
C374        N375   1.429       .  S
N375        O379   1.262       .  A
N375        O380   1.262       .  A
N378       C1145   1.430   1_545  S
N378        O382   1.262       .  A
N378        O381   1.262       .  A
C383        C384   1.398       .  A
C383        C388   1.399       .  A
C383        H390   1.084   1_554  S
C384        C385   1.405       .  A
C385        C386   1.397       .  A
C385        N392   1.431       .  S
C386        C387   1.405       .  A
C386        H391   1.084       .  S
C387        C388   1.415       .  A
C388        N389   1.429       .  S
N389       O1941   1.262       .  A
N389        O394   1.262       .  A
N392        O396   1.262       .  A
N392        O395   1.262       .  A
O393       N1937   1.262       .  A
C397        C398   1.409       .  A
C397        C402   1.391       .  A
C397        H404   1.083       .  S
C398        C399   1.416       .  A
C399        C400   1.405       .  A
C399        N406   1.429       .  S
C400        C401   1.406       .  A
C400        H405   1.084       .  S
C401        C402   1.407       .  A
C402        N403   1.430       .  S
N403        O407   1.262       .  A
N403        O408   1.262       .  A
N406        O410   1.262       .  A
N406        O409   1.262       .  A
C411        C412   1.401       .  A
C411        C416   1.399       .  A
C411        H418   1.084       .  S
C412        C413   1.411       .  A
C413        C414   1.398       .  A
C413        N420   1.427       .  S
C414        C415   1.398       .  A
C414        H419   1.084       .  S
C415        C416   1.407       .  A
C416        N417   1.431       .  S
N417        O421   1.262       .  A
N417        O422   1.262       .  A
N420        O424   1.262       .  A
N420        O423   1.262       .  A
C425        C426   1.402       .  A
C425       C1204   1.409       .  A
C425        H432   1.083       .  S
C426        C427   1.408       .  A
C427        C428   1.399       .  A
C427        N434   1.424       .  S
C428       C1203   1.398       .  A
C428        H433   1.085       .  S
C429        C430   1.414       .  A
C429       C1202   1.401   1_545  A
C430       C1199   1.409   1_545  A
C430        N431   1.430       .  S
N431        O435   1.262       .  A
N431        O436   1.262       .  A
N434        O438   1.261       .  A
N434        O437   1.262       .  A
C439        C440   1.408       .  A
C439        C444   1.407       .  A
C439        H446   1.083       .  S
C440        C441   1.404       .  A
C441        C442   1.391       .  A
C441        N448   1.433       .  S
C442        C443   1.409       .  A
C442        H447   1.085       .  S
C443        C444   1.409       .  A
C444        N445   1.428       .  S
N445        O449   1.262       .  A
N445        O450   1.262       .  A
N448        O452   1.262       .  A
N448        O451   1.261       .  A
C453        C454   1.396       .  A
C453        C458   1.393       .  A
C453        H460   1.080       .  S
C454        C455   1.415       .  A
C455        C456   1.410       .  A
C455        N462   1.441       .  S
C456        C457   1.402       .  A
C456        H461   1.082       .  S
C457        C458   1.408       .  A
C458        N459   1.428       .  S
N459        O463   1.261       .  A
N459        O464   1.261       .  A
N462        O466   1.263       .  A
N462        O465   1.263       .  A
C467        C468   1.402       .  A
C467        C472   1.409       .  A
C467        H474   1.084       .  S
C468        C469   1.407       .  A
C469        C470   1.398       .  A
C469        N476   1.427       .  S
C470       C1245   1.405       .  A
C470        H475   1.084       .  S
C471       C1244   1.405   1_545  A
C471       C1246   1.417       .  A
C472       C1245   1.418       .  A
C472       N1247   1.427       .  S
N473       C1246   1.427       .  S
N473        O477   1.262       .  A
N473        O478   1.262       .  A
N476        O480   1.262   1_455  A
N476        O479   1.261       .  A
C481        C482   1.403       .  A
C481       C2034   1.406       .  A
C481       H2036   1.084       .  S
C482        C483   1.411       .  A
C483        C484   1.397       .  A
C483        N490   1.429       .  S
C484        C485   1.397       .  A
C484        H489   1.080       .  S
C485       C1690   1.477       .  S
C485       C2034   1.414       .  A
C486       C2029   1.407   1_455  A
C486       C2033   1.415   1_455  A
C486        N487   1.428       .  S
N487        O491   1.261       .  A
N487        O492   1.262       .  A
H488       C2029   1.084   1_455  S
N490        O494   1.262       .  A
N490        O493   1.262       .  A
C495        C496   1.409       .  A
C495        C500   1.393       .  A
C495        H502   1.084       .  S
C496        C497   1.410       .  A
C497       C2046   1.401       .  A
C497       N2052   1.425       .  S
C498       C2045   1.401       .  A
C498       C2047   1.402       .  A
C498        H503   1.084   1_655  S
C499       C1674   1.463       .  S
C499        C500   1.405       .  A
C499       C2046   1.402       .  A
C500        N501   1.432       .  S
N501        O505   1.261       .  A
N501        O506   1.262       .  A
N504       C2045   1.425       .  S
N504        O508   1.262   1_655  A
N504       O2055   1.262       .  A
O507       N2052   1.262       .  A
C509        C510   1.407       .  A
C509        C514   1.405       .  A
C509       H2064   1.083       .  S
C510        C511   1.415       .  A
C511        C512   1.399       .  A
C511        N518   1.426       .  S
C512        C513   1.404       .  A
C512        H517   1.084       .  S
C513        C514   1.416       .  A
C514       N2063   1.429       .  S
N515       C2062   1.429       .  S
N515        O519   1.262       .  A
N515        O520   1.262       .  A
H516       C2057   1.083       .  S
N518        O522   1.262       .  A
N518        O521   1.262       .  A
C523        C524   1.403       .  A
C523        C528   1.395       .  A
C523        H530   1.085       .  S
C524        C525   1.407       .  A
C525        C526   1.402       .  A
C525        N532   1.428       .  S
C526        C527   1.408       .  A
C526        H531   1.084       .  S
C527        C528   1.410       .  A
C528        N529   1.429       .  S
N529        O533   1.261       .  A
N529        O534   1.262       .  A
N532        O536   1.262       .  A
N532        O535   1.261       .  A
C537        C538   1.405       .  A
C537        C542   1.397       .  A
C537        H544   1.085       .  S
C538        C539   1.407       .  A
C539        C540   1.405       .  A
C539        N546   1.429       .  S
C540        C541   1.410       .  A
C540        H545   1.084       .  S
C541        C542   1.410       .  A
C542        N543   1.429       .  S
N543        O547   1.262       .  A
N543        O548   1.262       .  A
N546        O550   1.262       .  A
N546        O549   1.262       .  A
C551        C552   1.407       .  A
C551        C556   1.405       .  A
C551        H558   1.084       .  S
C552        C553   1.415       .  A
C553        C554   1.399       .  A
C553        N560   1.428       .  S
C554        C555   1.405       .  A
C554        H559   1.084       .  S
C555        C556   1.417       .  A
C556        N557   1.429       .  S
N557        O561   1.262       .  A
N557        O562   1.262       .  A
N560        O564   1.262       .  A
N560        O563   1.262       .  A
C565        C566   1.406       .  A
C565        C570   1.403       .  A
C565        H572   1.084       .  S
C566        C567   1.412       .  A
C567        C568   1.396       .  A
C567        N574   1.430       .  S
C568        C569   1.408       .  A
C568        H573   1.083       .  S
C569        C570   1.415       .  A
C570        N571   1.428       .  S
N571        O575   1.262       .  A
N571        O576   1.262       .  A
N574        O578   1.262       .  A
N574        O577   1.262       .  A
C579        C580   1.402   1_545  A
C579        C584   1.401       .  A
C579        H586   1.084       .  S
C580        C581   1.416       .  A
C581        C582   1.401       .  A
C581        N588   1.430       .  S
C582        C583   1.406   1_565  A
C582        H587   1.083       .  S
C583        C584   1.420       .  A
C584       N1359   1.429       .  S
N585       C1358   1.427       .  S
N585       O1363   1.262       .  A
N585        O590   1.262       .  A
N588        O592   1.262       .  A
N588        O591   1.262       .  A
O589       N1359   1.262       .  A
C593        C594   1.399       .  A
C593        C598   1.396       .  A
C593        H600   1.084       .  S
C594        C595   1.412       .  A
C595        C596   1.416       .  A
C595        N602   1.428       .  S
C596        C597   1.409       .  A
C596        H601   1.084       .  S
C597        C598   1.413       .  A
C598        N599   1.430       .  S
N599        O603   1.262       .  A
N599        O604   1.261       .  A
N602        O606   1.262       .  A
N602        O605   1.262       .  A
C607        C608   1.407       .  A
C607        C612   1.400       .  A
C607        H614   1.083       .  S
C608        C609   1.415       .  A
C609        C610   1.404       .  A
C609        N616   1.429       .  S
C610        C611   1.407       .  A
C610        H615   1.084       .  S
C611        C612   1.413       .  A
C612        N613   1.429       .  S
N613        O617   1.262       .  A
N613        O618   1.262       .  A
N616        O620   1.262       .  A
N616        O619   1.262       .  A
C621        C622   1.400       .  A
C621        C626   1.403       .  A
C621        H628   1.084       .  S
C622        C623   1.411       .  A
C623        C624   1.396       .  A
C623        N630   1.430       .  S
C624        C625   1.402       .  A
C624        H629   1.084       .  S
C625        C626   1.420       .  A
C626        N627   1.430       .  S
N627        O631   1.262       .  A
N627        O632   1.261       .  A
N630        O634   1.262       .  A
N630        O633   1.262       .  A
C635        C636   1.405       .  A
C635        C640   1.405       .  A
C635        H642   1.084       .  S
C636        C637   1.411       .  A
C637        C638   1.398       .  A
C637        N644   1.429       .  S
C638        C639   1.400       .  A
C638        H643   1.084       .  S
C639        C640   1.407       .  A
C640        N641   1.431       .  S
N641        O645   1.261       .  A
N641        O646   1.263       .  A
N644        O648   1.261       .  A
N644        O647   1.262       .  A
C649        C654   1.396       .  A
C649       C1424   1.397       .  A
C649        H656   1.084       .  S
C650        C651   1.410       .  A
C650       C1423   1.390       .  A
C651        C652   1.415       .  A
C651        N658   1.430   1_565  S
C652        C653   1.411       .  A
C652        H657   1.083   1_565  S
C653       C1428   1.412       .  A
C654       C1427   1.412       .  A
C654        N655   1.428       .  S
N655        O659   1.262       .  A
N655        O660   1.262       .  A
N658        O662   1.261       .  A
N658        O661   1.262   1_545  A
C663        C668   1.401       .  A
C663       C1438   1.407       .  A
C663        H670   1.083       .  S
C664        C665   1.417       .  A
C664       C1437   1.406   1_545  A
C665        C666   1.398       .  A
C665        N672   1.430       .  S
C666        C667   1.405       .  A
C666        H671   1.084       .  S
C667       C1442   1.415   1_545  A
C668       C1441   1.412       .  A
C668        N669   1.429       .  S
N669        O673   1.262       .  A
N669        O674   1.262       .  A
N672        O676   1.262       .  A
N672        O675   1.262       .  A
C677        C678   1.399       .  A
C677        C682   1.396       .  A
C677        H684   1.080       .  S
C678        C679   1.405       .  A
C679        C680   1.396       .  A
C679        N686   1.431       .  S
C680        C681   1.404       .  A
C680        H685   1.085       .  S
C681        C682   1.404       .  A
C682        N683   1.429       .  S
N683        O687   1.262       .  A
N683        O688   1.262       .  A
N686        O690   1.262       .  A
N686        O689   1.262       .  A
C691       C2240   1.402       .  A
C691       C2244   1.391       .  A
C691        H698   1.085       .  S
C692       C1559   1.462       .  S
C692        C693   1.405       .  A
C692       C2239   1.402       .  A
C693        C694   1.402       .  A
C693        N700   1.429       .  S
C694        C695   1.408       .  A
C694        H699   1.084       .  S
C695        C696   1.409       .  A
C696       C2239   1.392       .  A
C696        N697   1.430       .  S
N697       O2249   1.262       .  A
N697        O702   1.261       .  A
N700        O704   1.262       .  A
N700        O703   1.262       .  A
O701       N2245   1.262       .  A
C705        C706   1.405       .  A
C705        C710   1.408       .  A
C705        H712   1.084       .  S
C706        C707   1.405       .  A
C707        C708   1.400       .  A
C707        N714   1.429       .  S
C708        C709   1.407       .  A
C708        H713   1.084       .  S
C709        C710   1.411       .  A
C710        N711   1.429       .  S
N711        O715   1.262       .  A
N711        O716   1.262       .  A
N714        O718   1.262       .  A
N714        O717   1.262       .  A
C719        C720   1.409       .  A
C719        C724   1.399       .  A
C719        H726   1.083       .  S
C720        C721   1.416       .  A
C721        C722   1.407       .  A
C721        N728   1.428       .  S
C722        C723   1.408       .  A
C722        H727   1.084       .  S
C723        C724   1.413       .  A
C724        N725   1.430       .  S
N725        O729   1.262   1_455  A
N725        O730   1.262   1_455  A
N728        O732   1.262       .  A
N728        O731   1.262       .  A
C733        C734   1.407       .  A
C733        C738   1.400       .  A
C733        H740   1.084       .  S
C734        C735   1.410       .  A
C735        C736   1.403       .  A
C735        N742   1.429       .  S
C736        C737   1.403       .  A
C736        H741   1.084       .  S
C737        C738   1.407       .  A
C738        N739   1.431       .  S
N739        O743   1.262       .  A
N739        O744   1.262       .  A
N742        O746   1.262       .  A
N742        O745   1.262       .  A
C747        C752   1.403       .  A
C747       C2296   1.403       .  A
C747        H754   1.084       .  S
C748        C749   1.416       .  A
C748       C2295   1.404   1_455  A
C749       C2298   1.394       .  A
C749        N756   1.431       .  S
C750        C751   1.395       .  A
C750       C2297   1.395       .  A
C750        H755   1.084       .  S
C751        C752   1.410       .  A
C752        N753   1.429       .  S
N753        O757   1.261       .  A
N753        O758   1.262       .  A
N756        O760   1.262       .  A
N756        O759   1.262       .  A
C761        C762   1.408       .  A
C761        C766   1.401       .  A
C761        H768   1.084       .  S
C762        C763   1.414       .  A
C763        C764   1.410       .  A
C763       N2318   1.429       .  S
C764        C765   1.409       .  A
C764        H769   1.084       .  S
C765        C766   1.412       .  A
C766        N767   1.428       .  S
N767        O771   1.262       .  A
N767        O772   1.262       .  A
N770       C2311   1.429       .  S
N770       O2322   1.262       .  A
N770        O773   1.262       .  A
O774       N2318   1.262       .  A
C775        N776   1.368       .  A
C775        N780   1.368       .  A
C775       C1539   1.491       .  S
N776        C777   1.360       .  A
C777        N778   1.343       .  A
C777       C1522   1.471       .  S
N778        C779   1.343       .  A
C779        N780   1.360       .  A
C779       C1508   1.467       .  S
C781        N782   1.369       .  A
C781        N786   1.366       .  A
C781       C1494   1.492       .  S
N782        C783   1.362       .  A
C783        N784   1.345       .  A
C783       C1483   1.467       .  S
N784        C785   1.344       .  A
C785        N786   1.353       .  A
C785       C3014   1.460   1_455  S
C787        N788   1.364       .  A
C787        N792   1.370       .  A
C787        C807   1.492       .  S
N788        C789   1.360       .  A
C789        N790   1.369       .  A
C789        C829   1.497       .  S
N790        C791   1.370       .  A
C791        N792   1.368       .  A
C791       C2399   1.507       .  S
O793       Cr811   1.997       .  S
O793        C801   1.258       .  A
O794       Cr811   1.970       .  S
O794        C795   1.262       .  A
C795       C1410   1.474       .  S
C795        O796   1.270       .  A
O796       Cr812   2.022       .  S
O797       Cr812   1.981       .  S
O797        C798   1.263       .  A
C798       C1441   1.485       .  S
C798        O799   1.265       .  A
O800       Cr813   2.008       .  S
C801       C1427   1.485       .  S
O802        C810   1.256   1_545  A
O803       Cr811   1.989       .  S
O803        C804   1.256       .  A
C804       C1525   1.465       .  S
C804        O805   1.262       .  A
O805       Cr812   1.986       .  S
O806       Cr812   2.022       .  S
C807        O808   1.263       .  A
O808       Cr813   1.992       .  S
O809       Cr813   2.024       .  S
O809        C810   1.273       .  A
C810       C1452   1.462       .  S
Cr811       O814   1.775       .  S
Cr812       O814   1.774       .  S
O815       Cr833   1.974       .  S
O815        C823   1.258       .  A
O816       Cr833   1.993       .  S
O816        C817   1.260       .  A
C817       C1368   1.483       .  S
C817        O818   1.263       .  A
O818       Cr834   2.009       .  S
O819       Cr834   2.015       .  S
O819        C820   1.272       .  A
C820       C1382   1.491       .  S
C820        O821   1.264       .  A
O821       Cr835   1.971       .  S
O822       Cr835   2.016       .  S
O822        C823   1.264       .  A
C823       C1413   1.479       .  S
O824       Cr833   2.002       .  S
O824        C832   1.263       .  A
O825       Cr833   1.963       .  S
O825        C826   1.257       .  A
C826       C1399   1.487       .  S
C826        O827   1.273       .  A
O827       Cr834   2.021       .  S
O828       Cr834   2.017       .  S
O828        C829   1.268       .  A
C829        O830   1.262       .  A
O830       Cr835   2.010       .  S
O831       Cr835   1.971       .  S
O831        C832   1.262       .  A
C832       C1469   1.468       .  S
Cr833       O836   1.774       .  S
Cr834       O836   1.772       .  S
Cr835       O836   1.776       .  S
O837       Cr855   2.001       .  S
O837        C845   1.260       .  A
O838       Cr855   1.979       .  S
O838        C839   1.257       .  A
C839       C1424   1.475       .  S
O840       Cr856   2.029       .  S
O841       Cr856   1.967       .  S
C842       C1354   1.486       .  S
C842        O843   1.272       .  A
O843       Cr857   2.016       .  S
O844       Cr857   2.003       .  S
O844        C845   1.259       .  A
C845       C1371   1.487       .  S
O846       Cr855   1.957       .  S
O846        C854   1.256       .  A
O847        C848   1.259       .  A
C848       C1480   1.469       .  S
C848        O849   1.263       .  A
O849       Cr856   1.993       .  S
O850       Cr856   2.023       .  S
O850        C851   1.268       .  A
C851       C2339   1.506       .  S
O852       Cr857   2.010       .  S
O853       Cr857   2.028       .  S
O853        C854   1.274       .  A
C854       C1511   1.474       .  S
Cr855       O858   1.779       .  S
Cr857       O858   1.785       .  S
C859        N860   1.370       .  A
C859        N864   1.364       .  A
C859       C1343   1.488       .  S
N860        C861   1.365       .  A
C861        N862   1.345       .  A
C861       C1396   1.473       .  S
N862        C863   1.341       .  A
C863        N864   1.352       .  A
C863       C1455   1.455       .  S
C865        N866   1.373       .  A
C865        N870   1.370       .  A
C865       C1326   1.497       .  S
N866        C867   1.362       .  A
C867        N868   1.344       .  A
C867       C1312   1.474       .  S
N868        C869   1.344       .  A
C869        N870   1.358       .  A
C869       C1298   1.470       .  S
C871        N872   1.369       .  A
C871        N876   1.373       .  A
C871       C1284   1.500       .  S
N872        C873   1.358       .  A
C873        N874   1.343       .  A
C873       C1270   1.474       .  S
N874        C875   1.340       .  A
C875        N876   1.361       .  A
C875       C1256   1.470       .  S
C877        N878   1.370       .  A
C877        N882   1.367       .  A
C877        C897   1.496       .  S
N878        C879   1.367       .  A
C879        N880   1.363       .  A
C879        C919   1.504       .  S
N880        C881   1.368       .  A
C881        N882   1.365       .  A
C881        C941   1.494       .  S
O883      Cr2449   1.971       .  S
O883        C891   1.257       .  A
O884       Cr901   1.993       .  S
O884        C885   1.259       .  A
C885       C1242   1.478       .  S
C885        O886   1.260       .  A
O886       Cr902   2.003       .  S
O887       Cr902   2.012       .  S
O887        C888   1.268       .  A
C888       C1497   1.492       .  S
C888        O889   1.260       .  A
O889       Cr903   1.970       .  S
O890      Cr2451   2.024       .  S
O890        C891   1.266       .  A
C891       C1231   1.473       .  S
O892       Cr901   1.994   1_655  S
O892        C900   1.261       .  A
O893       Cr901   1.966       .  S
O893        C894   1.259       .  A
C894       C1315   1.486       .  S
C894        O895   1.273       .  A
O895       Cr902   2.027       .  S
O896       Cr902   2.003       .  S
O896        C897   1.266       .  A
C897        O898   1.269       .  A
O898       Cr903   2.022       .  S
O899       Cr903   1.972       .  S
O899        C900   1.260   1_455  A
C900       C2821   1.465       .  S
Cr901      O2431   1.971   1_455  S
Cr901       O904   1.773       .  S
Cr902       O904   1.777       .  S
Cr903      O2438   2.023   1_455  S
Cr903       O904   1.777       .  S
O905       Cr923   1.969       .  S
O905        C913   1.262       .  A
O906      Cr2471   2.003       .  S
O906        C907   1.260       .  A
C907       C1203   1.478       .  S
C907        O908   1.257       .  A
O908      Cr2472   1.993       .  S
O909       Cr924   2.023       .  S
O909        C910   1.272       .  A
C910       C1536   1.484       .  S
C910        O911   1.259       .  A
O911       Cr925   1.962       .  S
O912       Cr925   2.044       .  S
O912        C913   1.273       .  A
C913       C1245   1.494       .  S
O914       Cr923   1.998       .  S
O914        C922   1.259       .  A
O915       Cr923   1.961       .  S
O915        C916   1.257       .  A
C916       C2807   1.475   1_455  S
C916        O917   1.277       .  A
O917       Cr924   2.036       .  S
O918       Cr924   1.998       .  S
O918        C919   1.263       .  A
C919        O920   1.272       .  A
O920       Cr925   2.037       .  S
O921       Cr925   1.973       .  S
O921        C922   1.260       .  A
C922       C1214   1.469       .  S
Cr923      O2454   2.003   1_455  S
Cr923       O926   1.775       .  S
Cr924      O2456   1.992   1_455  S
Cr924       O926   1.781       .  S
Cr925       O926   1.776       .  S
O927       Cr945   1.975       .  S
O927        C935   1.254       .  A
O928       Cr945   1.988       .  S
O928        C929   1.260       .  A
C929       C1228   1.475       .  S
C929        O930   1.265       .  A
O930       Cr946   2.013       .  S
O931       Cr946   1.980       .  S
O931        C932   1.267       .  A
C932       C1340   1.493       .  S
C932        O933   1.271       .  A
O933       Cr947   2.009       .  S
O934       Cr947   2.015       .  S
O934        C935   1.263       .  A
C935       C1200   1.481       .  S
O936       Cr945   1.971       .  S
O936        C944   1.262       .  A
O937       Cr945   1.997       .  S
O937        C938   1.259       .  A
C938       C1186   1.477       .  S
C938        O939   1.264       .  A
O939       Cr946   1.997       .  S
O940       Cr946   1.992       .  S
O940        C941   1.258       .  A
C941        O942   1.267       .  A
O942       Cr947   2.021       .  S
O943       Cr947   2.019       .  S
O943        C944   1.273       .  A
C944       C1301   1.482       .  S
Cr945       O948   1.778       .  S
Cr946       O948   1.776       .  S
Cr947       O948   1.778       .  S
C949        N950   1.370       .  A
C949        N954   1.375       .  A
C949       C1172   1.494       .  S
N950        C951   1.353       .  A
C951        N952   1.336       .  A
C951       C1189   1.462       .  S
N952        C953   1.344       .  A
C953        N954   1.365       .  A
C953       C1217   1.484       .  S
C955        N960   1.366       .  A
C955       C1438   1.496       .  S
N956        C957   1.361       .  A
C957       C1144   1.465   1_546  S
N958        C959   1.344   1_554  A
C959        N960   1.356       .  A
C959       C1158   1.461   1_556  S
C961        N962   1.370       .  A
C961        N966   1.370       .  A
C961       C1385   1.491       .  S
N962        C963   1.357   1_556  A
C963        N964   1.340       .  A
C963       C1119   1.464       .  S
N964        C965   1.339       .  A
C965        N966   1.358   1_554  A
C965       C1133   1.462       .  S
C967        N968   1.368       .  A
C967        N972   1.370       .  A
C967       C1031   1.504       .  S
N968        C969   1.367       .  A
C969        N970   1.362       .  A
C969        C987   1.498       .  S
N970        C971   1.366       .  A
C971        N972   1.370       .  A
O973       Cr991   1.968   1_455  S
O973        C981   1.263       .  A
O974       Cr991   1.970   1_455  S
O974        C975   1.251       .  A
C975       C1091   1.490       .  S
C975        O976   1.263   1_455  A
O976      Cr2540   2.026       .  S
O977       Cr992   2.005       .  S
O977        C978   1.267       .  A
C978       C1287   1.488       .  S
C978        O979   1.264       .  A
O979       Cr993   1.980       .  S
O980      Cr2541   2.033       .  S
O980        C981   1.271   1_655  A
C981       C1102   1.485       .  S
O982      Cr2539   1.986       .  S
O982        C990   1.252       .  A
O983      Cr2539   1.964       .  S
O983        C984   1.262       .  A
C984       C1161   1.481       .  S
C984        O985   1.276       .  A
O985       Cr992   2.028       .  S
O986       Cr992   2.013       .  S
O986        C987   1.269       .  A
C987        O988   1.267       .  A
O988       Cr993   2.012       .  S
O989       Cr993   1.987       .  S
O989        C990   1.261       .  A
C990       C1130   1.474       .  S
Cr991      O2530   1.986       .  S
Cr991      O2531   1.965       .  S
Cr991      O2542   1.768       .  S
Cr992      O2524   2.026       .  S
Cr992       O994   1.776       .  S
Cr993      O2528   2.032       .  S
Cr993       O994   1.772       .  S
O994      Cr2539   1.768       .  S
O995      Cr1013   1.978       .  S
O995       C1003   1.260       .  A
O996      Cr1013   1.993       .  S
O996        C997   1.260       .  A
C997       C1105   1.476       .  S
C997        O998   1.259       .  A
O998      Cr1014   1.994       .  S
O999      Cr1014   2.017       .  S
O999       C1000   1.271       .  A
C1000      C1329   1.497       .  S
C1000      O1001   1.267       .  A
O1001     Cr1015   1.980       .  S
O1002     Cr1015   2.040       .  S
O1002      C1003   1.270       .  A
C1003      C1060   1.497       .  S
O1004     Cr1013   2.013       .  S
O1004      C1012   1.263       .  A
O1005     Cr1013   1.969       .  S
O1005      C1006   1.260       .  A
C1006      C1074   1.484       .  S
C1006      O1007   1.272       .  A
O1007     Cr1014   2.022       .  S
O1008     Cr1014   2.007   1_545  S
O1008      C1009   1.264       .  A
C1009      O1010   1.266       .  A
O1010     Cr1015   2.018   1_545  S
O1011     Cr1015   1.987       .  S
O1011      C1012   1.264       .  A
C1012      C1147   1.482       .  S
Cr1013     O1016   1.778       .  S
Cr1014     O1016   1.782       .  S
Cr1015     O1016   1.774       .  S
O1017     Cr1035   1.953       .  S
O1017      C1025   1.254       .  A
O1018     Cr1035   1.990       .  S
O1018      C1019   1.257       .  A
C1019      C1063   1.479       .  S
C1019      O1020   1.260       .  A
O1020     Cr1036   2.010       .  S
O1021     Cr1036   2.005       .  S
O1021      C1022   1.266       .  A
C1022      C1175   1.486       .  S
C1022      O1023   1.262       .  A
O1023     Cr1037   1.975       .  S
O1024     Cr1037   2.049       .  S
O1024      C1025   1.270       .  A
C1025      C1088   1.486       .  S
O1026     Cr1035   1.997       .  S
O1026      C1034   1.260       .  A
O1027     Cr1035   1.959       .  S
O1027      C1028   1.259       .  A
C1028      C1116   1.484       .  S
C1028      O1029   1.275       .  A
O1029     Cr1036   2.034       .  S
O1030     Cr1036   2.004       .  S
O1030      C1031   1.269       .  A
C1031      O1032   1.273       .  A
O1032     Cr1037   2.037       .  S
O1033     Cr1037   1.984       .  S
O1033      C1034   1.263       .  A
C1034      C1046   1.467       .  S
Cr1035     O1038   1.765       .  S
Cr1036     O1038   1.775       .  S
Cr1037     O1038   1.782       .  S
C1039      N1044   1.372       .  A
C1039      C1357   1.497       .  S
N1040      C1041   1.362   1_556  A
C1041      C1077   1.472       .  S
N1042      C1043   1.344       .  A
C1043      N1044   1.363   1_554  A
C1043      C1049   1.474       .  S
C1045      C1046   1.404       .  A
C1045      C1050   1.404       .  A
C1045      H1052   1.084       .  S
C1046      C1047   1.403       .  A
C1047      C1048   1.396       .  A
C1047      N1054   1.429       .  S
C1048      C1049   1.408       .  A
C1048      H1053   1.085       .  S
C1049      C1050   1.409       .  A
C1050      N1051   1.427   1_554  S
N1051      O1055   1.262       .  A
N1051      O1056   1.262       .  A
N1054      O1058   1.262       .  A
N1054      O1057   1.262       .  A
C1059      C1060   1.403       .  A
C1059      C1064   1.402       .  A
C1059      H1066   1.075       .  S
C1060      C1061   1.413       .  A
C1061      C1062   1.409       .  A
C1061      N1068   1.425       .  S
C1062      C1063   1.401       .  A
C1062      H1067   1.081       .  S
C1063      C1064   1.408       .  A
C1064      N1065   1.429       .  S
N1065      O1069   1.261       .  A
N1065      O1070   1.262       .  A
N1068      O1072   1.260       .  A
N1068      O1071   1.261       .  A
C1073      C1074   1.409       .  A
C1073      C1078   1.405       .  A
C1073      H1080   1.084       .  S
C1074      C1075   1.411       .  A
C1075      C1076   1.396       .  A
C1075      N1082   1.429       .  S
C1076      C1077   1.404       .  A
C1076      H1081   1.085       .  S
C1077      C1078   1.408       .  A
C1078      N1079   1.429   1_554  S
N1079      O1083   1.262       .  A
N1079      O1084   1.262       .  A
N1082      O1086   1.261       .  A
N1082      O1085   1.262       .  A
C1087      C1088   1.399       .  A
C1087      C1092   1.383       .  A
C1087      H1094   1.085       .  S
C1088      C1089   1.413       .  A
C1089      C1090   1.418       .  A
C1089      N1096   1.427       .  S
C1090      C1091   1.411       .  A
C1090      H1095   1.083       .  S
C1091      C1092   1.416       .  A
C1092      N1093   1.431       .  S
N1093      O1097   1.261       .  A
N1093      O1098   1.262       .  A
N1096      O1100   1.262       .  A
N1096      O1099   1.262       .  A
C1101      C1102   1.400       .  A
C1101      C1106   1.395       .  A
C1101      H1108   1.084       .  S
C1102      C1103   1.415       .  A
C1103      C1104   1.408       .  A
C1103      N1110   1.428       .  S
C1104      C1105   1.403       .  A
C1104      H1109   1.083       .  S
C1105      C1106   1.405       .  A
C1106      N1107   1.422       .  S
N1107      O1111   1.262       .  A
N1107      O1112   1.261       .  A
N1110      O1114   1.261       .  A
N1110      O1113   1.262   1_455  A
C1115      C1116   1.408       .  A
C1115      C1120   1.403       .  A
C1115      H1122   1.084       .  S
C1116      C1117   1.413       .  A
C1117      C1118   1.398       .  A
C1117      N1124   1.429       .  S
C1118      C1119   1.402       .  A
C1118      H1123   1.085       .  S
C1119      C1120   1.407       .  A
C1120      N1121   1.429   1_554  S
N1121      O1125   1.262       .  A
N1121      O1126   1.262       .  A
N1124      O1128   1.261       .  A
N1124      O1127   1.262       .  A
C1129      C1130   1.397       .  A
C1129      C1134   1.389       .  A
C1129      H1136   1.084       .  S
C1130      C1131   1.419       .  A
C1131      C1132   1.405       .  A
C1131      N1138   1.430       .  S
C1132      C1133   1.399       .  A
C1132      H1137   1.084       .  S
C1133      C1134   1.412       .  A
C1134      N1135   1.431       .  S
N1135      O1139   1.261       .  A
N1135      O1140   1.262       .  A
N1138      O2690   1.262       .  A
N1138      O2689   1.262       .  A
O1141      N2686   1.262   1_455  A
O1142      N2686   1.262   1_455  A
C1143      C1144   1.398       .  A
C1143      C1148   1.405       .  A
C1143      H1150   1.084       .  S
C1144      C1145   1.410       .  A
C1145      C1146   1.398       .  A
C1146      C1147   1.403       .  A
C1146      H1151   1.084       .  S
C1147      C1148   1.416       .  A
C1148      N1149   1.428       .  S
N1149      O1153   1.262       .  A
N1149      O1154   1.263       .  A
N1152      O1156   1.262       .  A
N1152      O1155   1.262   1_554  A
C1157      C1158   1.399       .  A
C1157      C1162   1.400       .  A
C1157      H1164   1.084   1_554  S
C1158      C1159   1.408       .  A
C1159      C1160   1.399       .  A
C1159      N1166   1.433       .  S
C1160      C1161   1.405       .  A
C1160      H1165   1.084       .  S
C1161      C1162   1.415       .  A
C1162      N1163   1.428       .  S
N1163      O2715   1.262       .  A
N1163      O1168   1.262       .  A
N1166      O1170   1.262       .  A
N1166      O1169   1.262       .  A
O1167      N2711   1.262       .  A
C1171      C1172   1.408       .  A
C1171      C1176   1.399       .  A
C1171      H1178   1.083       .  S
C1172      C1173   1.414       .  A
C1173      C1174   1.402       .  A
C1173      N1180   1.425       .  S
C1174      C1175   1.404       .  A
C1174      H1179   1.084       .  S
C1175      C1176   1.412       .  A
C1176      N1177   1.429       .  S
N1177      O1181   1.262       .  A
N1177      O1182   1.262       .  A
N1180      O1184   1.261       .  A
N1180      O1183   1.262       .  A
C1185      C1186   1.402       .  A
C1185      C1190   1.402       .  A
C1185      H1192   1.084       .  S
C1186      C1187   1.412       .  A
C1187      C1188   1.402       .  A
C1187      N1194   1.429       .  S
C1188      C1189   1.401       .  A
C1188      H1193   1.084       .  S
C1189      C1190   1.410       .  A
C1190      N1191   1.433       .  S
N1191      O1195   1.262       .  A
N1191      O1196   1.262       .  A
N1194      O1198   1.262       .  A
N1194      O1197   1.262       .  A
C1199      C1200   1.402       .  A
C1199      H1206   1.082       .  S
C1200      C1201   1.409       .  A
C1201      C1202   1.404       .  A
C1201      N1208   1.426       .  S
C1202      H1207   1.084       .  S
C1203      C1204   1.414       .  A
C1204      N1205   1.429       .  S
N1205      O1209   1.262       .  A
N1205      O1210   1.262       .  A
N1208      O1212   1.261       .  A
N1208      O1211   1.262       .  A
C1213      C1214   1.406       .  A
C1213      C1218   1.405       .  A
C1213      H1220   1.084       .  S
C1214      C1215   1.404       .  A
C1215      C1216   1.391       .  A
C1215      N1222   1.433       .  S
C1216      C1217   1.411       .  A
C1216      H1221   1.085       .  S
C1217      C1218   1.409       .  A
C1218      N1219   1.425       .  S
N1219      O1223   1.262       .  A
N1219      O1224   1.261       .  A
N1222      O1226   1.262       .  A
N1222      O1225   1.261       .  A
C1227      C1228   1.399       .  A
C1227      C1232   1.397       .  A
C1227      H1234   1.082       .  S
C1228      C1229   1.411       .  A
C1229      C1230   1.406       .  A
C1229      N1236   1.435       .  S
C1230      C1231   1.402       .  A
C1230      H1235   1.083       .  S
C1231      C1232   1.410       .  A
C1232      N1233   1.428       .  S
N1233      O1237   1.261       .  A
N1233      O1238   1.261       .  A
N1236      O1240   1.262       .  A
N1236      O1239   1.263       .  A
C1241      C1242   1.399       .  A
C1241      C1246   1.405   1_565  A
C1241      H1248   1.083       .  S
C1242      C1243   1.409       .  A
C1243      C1244   1.404       .  A
C1243      N1250   1.427       .  S
C1244      H1249   1.084       .  S
N1247      O1251   1.262       .  A
N1247      O1252   1.262       .  A
N1250      O1254   1.261   1_455  A
N1250      O1253   1.262       .  A
C1255      C1256   1.404       .  A
C1255      C2808   1.406       .  A
C1255      H2810   1.084       .  S
C1256      C1257   1.412       .  A
C1257      C1258   1.397       .  A
C1257      N1264   1.430       .  S
C1258      C1259   1.398       .  A
C1258      H1263   1.082       .  S
C1259      C2464   1.478       .  S
C1259      C2808   1.413       .  A
C1260      C2803   1.405   1_455  A
C1260      C2807   1.412   1_455  A
C1260      N1261   1.429       .  S
N1261      O1265   1.261       .  A
N1261      O1266   1.262       .  A
H1262      C2803   1.084   1_455  S
N1264      O1268   1.262       .  A
N1264      O1267   1.262       .  A
C1269      C1270   1.407       .  A
C1269      C1274   1.393       .  A
C1269      H1276   1.084       .  S
C1270      C1271   1.410       .  A
C1271      C2820   1.401       .  A
C1271      N2826   1.427       .  S
C1272      C2819   1.402       .  A
C1272      C2821   1.403       .  A
C1272      H1277   1.084   1_655  S
C1273      C2448   1.463       .  S
C1273      C2820   1.403       .  A
C1273      C1274   1.407       .  A
C1274      N1275   1.434       .  S
N1275      O1279   1.262       .  A
N1275      O1280   1.262       .  A
N1278      C2819   1.427       .  S
N1278      O1282   1.262   1_655  A
N1278      O2829   1.262       .  A
O1281      N2826   1.262       .  A
C1283      C1284   1.409       .  A
C1283      C1288   1.403       .  A
C1283      H2838   1.083       .  S
C1284      C1285   1.420       .  A
C1285      C1286   1.401       .  A
C1285      N1292   1.428       .  S
C1286      C1287   1.402       .  A
C1286      H1291   1.084       .  S
C1287      C1288   1.413       .  A
C1288      N2837   1.429       .  S
N1289      C2836   1.429       .  S
N1289      O1293   1.262       .  A
N1289      O1294   1.262       .  A
H1290      C2831   1.083       .  S
N1292      O1296   1.262       .  A
N1292      O1295   1.262       .  A
C1297      C1298   1.402       .  A
C1297      C1302   1.395       .  A
C1297      H1304   1.085       .  S
C1298      C1299   1.407       .  A
C1299      C1300   1.405       .  A
C1299      N1306   1.428       .  S
C1300      C1301   1.409       .  A
C1300      H1305   1.084       .  S
C1301      C1302   1.410       .  A
C1302      N1303   1.427       .  S
N1303      O1307   1.261       .  A
N1303      O1308   1.262       .  A
N1306      O1310   1.262       .  A
N1306      O1309   1.262       .  A
C1311      C1312   1.404       .  A
C1311      C1316   1.397       .  A
C1311      H1318   1.085       .  S
C1312      C1313   1.407       .  A
C1313      C1314   1.406       .  A
C1313      N1320   1.428       .  S
C1314      C1315   1.410       .  A
C1314      H1319   1.084       .  S
C1315      C1316   1.411       .  A
C1316      N1317   1.429       .  S
N1317      O1321   1.262       .  A
N1317      O1322   1.262       .  A
N1320      O1324   1.262       .  A
N1320      O1323   1.262       .  A
C1325      C1326   1.407       .  A
C1325      C1330   1.406       .  A
C1325      H1332   1.083       .  S
C1326      C1327   1.416       .  A
C1327      C1328   1.401       .  A
C1327      N1334   1.428       .  S
C1328      C1329   1.406       .  A
C1328      H1333   1.084       .  S
C1329      C1330   1.417       .  A
C1330      N1331   1.429       .  S
N1331      O1335   1.262       .  A
N1331      O1336   1.262   1_565  A
N1334      O1338   1.262       .  A
N1334      O1337   1.262       .  A
C1339      C1340   1.409       .  A
C1339      C1344   1.405       .  A
C1339      H1346   1.083       .  S
C1340      C1341   1.416       .  A
C1341      C1342   1.398       .  A
C1341      N1348   1.430       .  S
C1342      C1343   1.405       .  A
C1342      H1347   1.084       .  S
C1343      C1344   1.412       .  A
C1344      N1345   1.428       .  S
N1345      O1349   1.262       .  A
N1345      O1350   1.262       .  A
N1348      O1352   1.262       .  A
N1348      O1351   1.262       .  A
C1353      C1354   1.404       .  A
C1353      C1358   1.404       .  A
C1353      H1360   1.084       .  S
C1354      C1355   1.410       .  A
C1355      C1356   1.402       .  A
C1355      N1362   1.430       .  S
C1356      C1357   1.409       .  A
C1356      H1361   1.083       .  S
C1357      C1358   1.417       .  A
N1359      O1364   1.262       .  A
N1362      O1366   1.262       .  A
N1362      O1365   1.262       .  A
C1367      C1368   1.402       .  A
C1367      C1372   1.405       .  A
C1367      H1374   1.082       .  S
C1368      C1369   1.412       .  A
C1369      C1370   1.409       .  A
C1369      N1376   1.429       .  S
C1370      C1371   1.404       .  A
C1370      H1375   1.082       .  S
C1371      C1372   1.408       .  A
C1372      N1373   1.426       .  S
N1373      O1377   1.261       .  A
N1373      O1378   1.262       .  A
N1376      O1380   1.262       .  A
N1376      O1379   1.262       .  A
C1381      C1382   1.408       .  A
C1381      C1386   1.402       .  A
C1381      H1388   1.084       .  S
C1382      C1383   1.414       .  A
C1383      C1384   1.399       .  A
C1383      N1390   1.429       .  S
C1384      C1385   1.406       .  A
C1384      H1389   1.083       .  S
C1385      C1386   1.415       .  A
C1386      N1387   1.430       .  S
N1387      O1391   1.262       .  A
N1387      O1392   1.262       .  A
N1390      O1394   1.262       .  A
N1390      O1393   1.262       .  A
C1395      C1396   1.401       .  A
C1395      C1400   1.404       .  A
C1395      H1402   1.084       .  S
C1396      C1397   1.413       .  A
C1397      C1398   1.395       .  A
C1397      N1404   1.430       .  S
C1398      C1399   1.402       .  A
C1398      H1403   1.083       .  S
C1399      C1400   1.419       .  A
C1400      N1401   1.429       .  S
N1401      O1405   1.262       .  A
N1401      O1406   1.261       .  A
N1404      O1408   1.262       .  A
N1404      O1407   1.262       .  A
C1409      C1410   1.401       .  A
C1409      C1414   1.401       .  A
C1409      H1416   1.084       .  S
C1410      C1411   1.412       .  A
C1411      C1412   1.401       .  A
C1411      N1418   1.430       .  S
C1412      C1413   1.404       .  A
C1412      H1417   1.084       .  S
C1413      C1414   1.410       .  A
C1414      N1415   1.432       .  S
N1415      O1419   1.261       .  A
N1415      O1420   1.263       .  A
N1418      O1422   1.262       .  A
N1418      O1421   1.262       .  A
C1423      C1428   1.391       .  A
C1423      H1430   1.084       .  S
C1424      C1425   1.408       .  A
C1425      C1426   1.412       .  A
C1425      N1432   1.429       .  S
C1426      C1427   1.409       .  A
C1426      H1431   1.083       .  S
C1428      N1429   1.426       .  S
N1429      O1433   1.262       .  A
N1429      O1434   1.263       .  A
N1432      O1436   1.261       .  A
N1432      O1435   1.262       .  A
C1437      C1442   1.403       .  A
C1437      H1444   1.083       .  S
C1438      C1439   1.420       .  A
C1439      C1440   1.402       .  A
C1439      N1446   1.429       .  S
C1440      C1441   1.403       .  A
C1440      H1445   1.084       .  S
C1442      N1443   1.429       .  S
N1443      O1447   1.262       .  A
N1443      O1448   1.262       .  A
N1446      O1450   1.262       .  A
N1446      O1449   1.262       .  A
C1451      C1452   1.398       .  A
C1451      C1456   1.395       .  A
C1451      H1458   1.074       .  S
C1452      C1453   1.406       .  A
C1453      C1454   1.398       .  A
C1453      N1460   1.432       .  S
C1454      C1455   1.405       .  A
C1454      H1459   1.085       .  S
C1455      C1456   1.403       .  A
C1456      N1457   1.430       .  S
N1457      O1461   1.262       .  A
N1457      O1462   1.262       .  A
N1460      O1464   1.262       .  A
N1460      O1463   1.262       .  A
C1465      C3014   1.402       .  A
C1465      C3018   1.391       .  A
C1465      H1472   1.085       .  S
C1466      C2333   1.460       .  S
C1466      C3013   1.402       .  A
C1466      C1467   1.404       .  A
C1467      C1468   1.402       .  A
C1467      N1474   1.428       .  S
C1468      C1469   1.407       .  A
C1468      H1473   1.084       .  S
C1469      C1470   1.408       .  A
C1470      C3013   1.390       .  A
C1470      N1471   1.430       .  S
N1471      O3023   1.262       .  A
N1471      O1476   1.261       .  A
N1474      O1478   1.262       .  A
N1474      O1477   1.262       .  A
O1475      N3019   1.262       .  A
C1479      C1480   1.401       .  A
C1479      C1484   1.402       .  A
C1479      H1486   1.084       .  S
C1480      C1481   1.409       .  A
C1481      C1482   1.401       .  A
C1481      N1488   1.432       .  S
C1482      C1483   1.403       .  A
C1482      H1487   1.084       .  S
C1483      C1484   1.411       .  A
C1484      N1485   1.430       .  S
N1485      O1489   1.262       .  A
N1485      O1490   1.262       .  A
N1488      O1492   1.262       .  A
N1488      O1491   1.262       .  A
C1493      C1494   1.406       .  A
C1493      C1498   1.397       .  A
C1493      H1500   1.083       .  S
C1494      C1495   1.415       .  A
C1495      C1496   1.404       .  A
C1495      N1502   1.429       .  S
C1496      C1497   1.408       .  A
C1496      H1501   1.083       .  S
C1497      C1498   1.415       .  A
C1498      N1499   1.430   1_455  S
N1499      O1503   1.262       .  A
N1499      O1504   1.262       .  A
N1502      O1506   1.262       .  A
N1502      O1505   1.262       .  A
C1507      C1508   1.404       .  A
C1507      C1512   1.396       .  A
C1507      H1514   1.084       .  S
C1508      C1509   1.410       .  A
C1509      C1510   1.403       .  A
C1509      N1516   1.429       .  S
C1510      C1511   1.404       .  A
C1510      H1515   1.084       .  S
C1511      C1512   1.404       .  A
C1512      N1513   1.426       .  S
N1513      O1517   1.261       .  A
N1513      O1518   1.262       .  A
N1516      O1520   1.262       .  A
N1516      O1519   1.262       .  A
C1521      C3070   1.403       .  A
C1521      C1526   1.403       .  A
C1521      H1528   1.084       .  S
C1522      C3069   1.403   1_455  A
C1522      C1523   1.415       .  A
C1523      C3072   1.394       .  A
C1523      N1530   1.430       .  S
C1524      C3071   1.393       .  A
C1524      C1525   1.394       .  A
C1524      H1529   1.084       .  S
C1525      C1526   1.412       .  A
C1526      N1527   1.430       .  S
N1527      O1531   1.262       .  A
N1527      O1532   1.262       .  A
N1530      O1534   1.262       .  A
N1530      O1533   1.262       .  A
C1535      C1536   1.405       .  A
C1535      C1540   1.400       .  A
C1535      H1542   1.084       .  S
C1536      C1537   1.409       .  A
C1537      C1538   1.404       .  A
C1537      N3092   1.429       .  S
C1538      C1539   1.409       .  A
C1538      H1543   1.083       .  S
C1539      C1540   1.415       .  A
C1540      N1541   1.429       .  S
N1541      O1545   1.262       .  A
N1541      O1546   1.262       .  A
N1544      C3085   1.429       .  S
N1544      O3096   1.262       .  A
N1544      O1547   1.262       .  A
O1548      N3092   1.261   1_655  A
C1549      N1550   1.369       .  A
C1549      N1554   1.371       .  A
C1549      C2313   1.500       .  S
N1550      C1551   1.361       .  A
C1551      N1552   1.344       .  A
C1551      C2296   1.472       .  S
N1552      C1553   1.343       .  A
C1553      N1554   1.363       .  A
C1553      C2282   1.474       .  S
C1555      N1556   1.375       .  A
C1555      N1560   1.369       .  A
C1555      C2268   1.500       .  S
N1556      C1557   1.365       .  A
C1557      N1558   1.343       .  A
C1557      C2257   1.475       .  S
N1558      C1559   1.341       .  A
C1559      N1560   1.353       .  A
C1561      N1562   1.364       .  A
C1561      N1566   1.368       .  A
C1561      C1581   1.490       .  S
N1562      C1563   1.360       .  A
C1563      N1564   1.370       .  A
C1563      C1603   1.497       .  S
N1564      C1565   1.369   1_655  A
C1565      N1566   1.367   1_455  A
O1567     Cr1585   2.004       .  S
O1567      C1575   1.261   1_545  A
O1568     Cr1585   1.979       .  S
O1568      C1569   1.263       .  A
C1569      C2184   1.473       .  S
C1569      O1570   1.269       .  A
O1570     Cr1586   2.018       .  S
O1571     Cr1586   1.971       .  S
O1571      C1572   1.262       .  A
C1572      C2215   1.488       .  S
C1572      O1573   1.266   1_545  A
O1573     Cr2361   2.004       .  S
O1574     Cr1587   2.004       .  S
O1574      C2349   1.258       .  A
C1575      C2201   1.490       .  S
C1575      O2348   1.259       .  A
O1576     Cr2359   1.952       .  S
O1576      C1584   1.255       .  A
O1577     Cr1585   1.992       .  S
O1577      C1578   1.258       .  A
C1578      C2299   1.468       .  S
C1578      O1579   1.263       .  A
O1579     Cr1586   1.984       .  S
O1580     Cr1586   2.024       .  S
O1580      C2355   1.268   1_545  A
C1581      O2354   1.268       .  A
C1581      O1582   1.263       .  A
O1582     Cr1587   1.989       .  S
O1583     Cr1587   2.020       .  S
O1583      C1584   1.272       .  A
C1584      C2226   1.455       .  S
Cr1585     O2350   1.960       .  S
Cr1585     O1588   1.774       .  S
Cr1586     O1588   1.773       .  S
Cr1587     O2347   2.000       .  S
Cr1587     O2362   1.775       .  S
O1588     Cr2361   1.777   1_545  S
O1589     Cr1607   1.976       .  S
O1589      C1597   1.257       .  A
O1590     Cr1607   1.984       .  S
O1590      C1591   1.258       .  A
C1591      C2142   1.483       .  S
C1591      O1592   1.263       .  A
O1592     Cr1608   2.013       .  S
O1593     Cr1608   2.021       .  S
O1593      C1594   1.273       .  A
C1594      C2156   1.493       .  S
C1594      O1595   1.266       .  A
O1595     Cr1609   1.970       .  S
O1596     Cr1609   2.016       .  S
O1596      C1597   1.264       .  A
C1597      C2187   1.471       .  S
O1598     Cr1607   1.999       .  S
O1598      C1606   1.262       .  A
O1599     Cr1607   1.957       .  S
O1599      C1600   1.256       .  A
C1600      C2173   1.483       .  S
C1600      O1601   1.275       .  A
O1601     Cr1608   2.026       .  S
O1602     Cr1608   2.021       .  S
O1602      C1603   1.269       .  A
C1603      O1604   1.261       .  A
O1604     Cr1609   2.003       .  S
O1605     Cr1609   1.976       .  S
O1605      C1606   1.262       .  A
C1606      C2243   1.472       .  S
Cr1607     O1610   1.772       .  S
Cr1608     O1610   1.773       .  S
Cr1609     O1610   1.774       .  S
O1611     Cr1629   1.986       .  S
O1611      C1619   1.255       .  A
O1612     Cr1629   1.975       .  S
O1612      C1613   1.256   1_545  A
C1613      C2198   1.470       .  S
C1613      O2388   1.269       .  A
O1614     Cr1630   2.026       .  S
O1614      C2387   1.267       .  A
O1615     Cr1630   1.975       .  S
O1615      C2390   1.264       .  A
C1616      C2128   1.489       .  S
C1616      O2389   1.261       .  A
C1616      O1617   1.272   1_565  A
O1617     Cr1631   2.016       .  S
O1618     Cr1631   2.016       .  S
O1618      C1619   1.263       .  A
C1619      C2145   1.488       .  S
O1620     Cr1629   1.963       .  S
O1620      C1628   1.260       .  A
O1621     Cr2403   2.007       .  S
O1621      C1622   1.263       .  A
C1622      C2254   1.475       .  S
C1622      O1623   1.266       .  A
O1623     Cr1630   1.991       .  S
O1624     Cr1630   2.028       .  S
O1624      C1625   1.267       .  A
C1625      O2400   1.265       .  A
O1626     Cr1631   2.016       .  S
O1626      C2399   1.268   1_545  A
O1627     Cr1631   2.030       .  S
O1627      C1628   1.276       .  A
C1628      C2285   1.477       .  S
Cr1629     O2395   2.003   1_545  S
Cr1629     O1632   1.774       .  S
Cr1630     O2406   1.784       .  S
Cr1631     O1632   1.779       .  S
O1632     Cr2404   1.780   1_545  S
C1633      N1634   1.369       .  A
C1633      N1638   1.365       .  A
C1633      C2117   1.490       .  S
N1634      C1635   1.362       .  A
C1635      N1636   1.344       .  A
C1635      C2170   1.465       .  S
N1636      C1637   1.340       .  A
C1637      N1638   1.351       .  A
C1637      C2229   1.453       .  S
C1639      N1640   1.372       .  A
C1639      N1644   1.368       .  A
C1639      C2100   1.493       .  S
N1640      C1641   1.362       .  A
C1641      N1642   1.343       .  A
C1641      C2086   1.470       .  S
N1642      C1643   1.342       .  A
C1643      N1644   1.357       .  A
C1643      C2072   1.467       .  S
C1645      N1646   1.372       .  A
C1645      N1650   1.373       .  A
C1645      C2058   1.497       .  S
N1646      C1647   1.361       .  A
C1647      N1648   1.342       .  A
C1647      C2044   1.479       .  S
N1648      C1649   1.339       .  A
C1649      N1650   1.360       .  A
C1649      C2030   1.470       .  S
C1651      N1652   1.369       .  A
C1651      N1656   1.365       .  A
C1651      C1671   1.495       .  S
N1652      C1653   1.368       .  A
C1653      N1654   1.365       .  A
C1653      C1693   1.505       .  S
N1654      C1655   1.369       .  A
C1655      N1656   1.364       .  A
C1655      C1715   1.494       .  S
O1657      C1665   1.256       .  A
O1658     Cr1675   1.992       .  S
O1658      C1659   1.259       .  A
C1659      C2016   1.478       .  S
C1659      O1660   1.261       .  A
O1660     Cr1676   2.003       .  S
O1661     Cr1676   2.019       .  S
O1661      C1662   1.270       .  A
C1662      C2271   1.494       .  S
C1662      O1663   1.261       .  A
O1663     Cr1677   1.972       .  S
O1664      C1665   1.266       .  A
C1665      C2005   1.472       .  S
O1666     Cr1675   1.990       .  S
O1666      C1674   1.261       .  A
O1667     Cr1675   1.959       .  S
O1667      C1668   1.256       .  A
C1668      C2089   1.484       .  S
C1668      O1669   1.273       .  A
O1669     Cr1676   2.031       .  S
O1670     Cr1676   2.003       .  S
O1670      C1671   1.266       .  A
C1671      O1672   1.269       .  A
O1672     Cr1677   2.022       .  S
O1673     Cr1677   1.972       .  S
O1673      C1674   1.260       .  A
Cr1675     O1678   1.771       .  S
Cr1676     O1678   1.778       .  S
Cr1677     O1678   1.778       .  S
O1679     Cr1697   1.975       .  S
O1679      C1687   1.263       .  A
O1680      C1681   1.260       .  A
C1681      C1977   1.483       .  S
C1681      O1682   1.259       .  A
O1683     Cr1698   2.031       .  S
O1683      C1684   1.273       .  A
C1684      C2310   1.500       .  S
C1684      O1685   1.262       .  A
O1685     Cr1699   1.968       .  S
O1686     Cr1699   2.040       .  S
O1686      C1687   1.273       .  A
C1687      C2019   1.493       .  S
O1688     Cr1697   1.995       .  S
O1688      C1696   1.258       .  A
O1689     Cr1697   1.960       .  S
O1689      C1690   1.256       .  A
C1690      O1691   1.278       .  A
O1691     Cr1698   2.041       .  S
O1692     Cr1698   1.999       .  S
O1692      C1693   1.264       .  A
C1693      O1694   1.271       .  A
O1694     Cr1699   2.037       .  S
O1695     Cr1699   1.981       .  S
O1695      C1696   1.262       .  A
C1696      C1988   1.471       .  S
Cr1697     O1700   1.778       .  S
Cr1698     O1700   1.781       .  S
Cr1699     O1700   1.775       .  S
O1701     Cr1719   1.980       .  S
O1701      C1709   1.255       .  A
O1702     Cr1719   1.983       .  S
O1702      C1703   1.259       .  A
C1703      C2002   1.473       .  S
C1703      O1704   1.265       .  A
O1704     Cr1720   2.012       .  S
O1705     Cr1720   1.972       .  S
O1705      C1706   1.264       .  A
C1706      C2114   1.482       .  S
C1706      O1707   1.270       .  A
O1707     Cr1721   2.004       .  S
O1708     Cr1721   2.008       .  S
O1708      C1709   1.261       .  A
C1709      C1974   1.478       .  S
O1710     Cr1719   1.965       .  S
O1710      C1718   1.261       .  A
O1711     Cr1719   2.000       .  S
O1711      C1712   1.261       .  A
C1712      C1960   1.469       .  S
C1712      O1713   1.263       .  A
O1713     Cr1720   1.988       .  S
O1714     Cr1720   2.000       .  S
O1714      C1715   1.260       .  A
C1715      O1716   1.267       .  A
O1716     Cr1721   2.016       .  S
O1717     Cr1721   2.017       .  S
O1717      C1718   1.272       .  A
C1718      C2075   1.478       .  S
Cr1719     O1722   1.775       .  S
Cr1720     O1722   1.774       .  S
Cr1721     O1722   1.777       .  S
C1723      N1724   1.366       .  A
C1723      N1728   1.375       .  A
C1723      C1946   1.492       .  S
N1724      C1725   1.346       .  A
C1725      N1726   1.335       .  A
C1725      C1963   1.455       .  S
N1726      C1727   1.346       .  A
C1727      N1728   1.367       .  A
C1727      C1991   1.481       .  S
C1729      N2504   1.371       .  A
C1729      N1734   1.363       .  A
C1729      C2212   1.490       .  S
N1730      C2503   1.371       .  A
N1730      C1731   1.360       .  A
C1731      N2506   1.343   1_556  A
C1731      C1918   1.465   1_556  S
N1732      C2505   1.344   1_554  A
N1732      C1733   1.344   1_554  A
C1733      N1734   1.352       .  A
C1733      C1932   1.456   1_556  S
C1735      N1736   1.372       .  A
C1735      N1740   1.370       .  A
C1735      C2159   1.494       .  S
N1736      C1737   1.360   1_556  A
C1737      N1738   1.340       .  A
C1737      C1893   1.465       .  S
N1738      C1739   1.338       .  A
C1739      N1740   1.357   1_554  A
C1739      C1907   1.463       .  S
C1741      N1742   1.367       .  A
C1741      N1746   1.369       .  A
C1741      C1805   1.501       .  S
N1742      C1743   1.367       .  A
C1743      N1744   1.363       .  A
C1743      C1761   1.496       .  S
N1744      C1745   1.366       .  A
C1745      N1746   1.369       .  A
C1745      C2557   1.496       .  S
O1747     Cr1765   1.957       .  S
O1747      C1755   1.261       .  A
O1748     Cr1765   1.974       .  S
O1748      C1749   1.253       .  A
C1749      C1865   1.492       .  S
C1749      O1750   1.263       .  A
O1751     Cr1766   2.009       .  S
O1751      C1752   1.268       .  A
C1752      C2061   1.495       .  S
C1752      O1753   1.265       .  A
O1753     Cr1767   1.979       .  S
O1754      C1755   1.272       .  A
C1755      C1876   1.483       .  S
O1756      C1764   1.254       .  A
O1757      C1758   1.260       .  A
C1758      C1935   1.476       .  S
C1758      O1759   1.275       .  A
O1759     Cr1766   2.024       .  S
O1760     Cr1766   2.008       .  S
O1760      C1761   1.267       .  A
C1761      O1762   1.267       .  A
O1762     Cr1767   2.014       .  S
O1763     Cr1767   1.986       .  S
O1763      C1764   1.261       .  A
C1764      C1904   1.475       .  S
Cr1766     O1768   1.776       .  S
Cr1767     O1768   1.772       .  S
O1769     Cr1787   1.978       .  S
O1769      C1777   1.260       .  A
O1770     Cr1787   1.992       .  S
O1770      C1771   1.260       .  A
C1771      C1879   1.475       .  S
C1771      O1772   1.258       .  A
O1772     Cr1788   1.992       .  S
O1773     Cr1788   2.013       .  S
O1773      C1774   1.270       .  A
C1774      C2103   1.493       .  S
C1774      O1775   1.267       .  A
O1775     Cr1789   1.976       .  S
O1776     Cr1789   2.037       .  S
O1776      C1777   1.268       .  A
C1777      C1834   1.496       .  S
O1778     Cr1787   2.009       .  S
O1778      C1786   1.262       .  A
O1779     Cr1787   1.966       .  S
O1779      C1780   1.259       .  A
C1780      C1848   1.478       .  S
C1780      O1781   1.273       .  A
O1781     Cr1788   2.021       .  S
O1782     Cr1788   2.007       .  S
O1782      C1783   1.264       .  A
C1783      C2519   1.497       .  S
C1783      O1784   1.265       .  A
O1784     Cr1789   2.015       .  S
O1785     Cr1789   1.987       .  S
O1785      C1786   1.265       .  A
C1786      C1921   1.480       .  S
Cr1787     O1790   1.777       .  S
Cr1788     O1790   1.783       .  S
Cr1789     O1790   1.773       .  S
O1791     Cr1809   1.952       .  S
O1791      C1799   1.253       .  A
O1792     Cr1809   1.986       .  S
O1792      C1793   1.256       .  A
C1793      C1837   1.477       .  S
C1793      O1794   1.259       .  A
O1794     Cr1810   2.006       .  S
O1795     Cr1810   2.008       .  S
O1795      C1796   1.270       .  A
C1796      C1949   1.477       .  S
C1796      O1797   1.261       .  A
O1797     Cr1811   1.968       .  S
O1798     Cr1811   2.055       .  S
O1798      C1799   1.271       .  A
C1799      C1862   1.484       .  S
O1800     Cr1809   1.998       .  S
O1800      C1808   1.260       .  A
O1801     Cr1809   1.955       .  S
O1801      C1802   1.258       .  A
C1802      C1890   1.484       .  S
C1802      O1803   1.277       .  A
O1803     Cr1810   2.039       .  S
O1804     Cr1810   2.003       .  S
O1804      C1805   1.268       .  A
C1805      O1806   1.271       .  A
O1806     Cr1811   2.033       .  S
O1807     Cr1811   1.979       .  S
O1807      C1808   1.262       .  A
C1808      C1820   1.458       .  S
Cr1809     O1812   1.763       .  S
Cr1810     O1812   1.772       .  S
Cr1811     O1812   1.782       .  S
C1813      N2588   1.372   1_545  A
C1813      N1818   1.365       .  A
C1813      C2131   1.496       .  S
N1814      C2587   1.371       .  A
N1814      C1815   1.358   1_556  A
C1815      N2590   1.341       .  A
C1815      C1851   1.468       .  S
N1816      C2589   1.345   1_545  A
N1816      C1817   1.342       .  A
C1817      N1818   1.355   1_554  A
C1817      C1823   1.460       .  S
C1819      C1820   1.399       .  A
C1819      C1824   1.398       .  A
C1819      H1826   1.084       .  S
C1820      C1821   1.404       .  A
C1821      C1822   1.397       .  A
C1821      N1828   1.429       .  S
C1822      C1823   1.404       .  A
C1822      H1827   1.084       .  S
C1823      C1824   1.409       .  A
C1824      N1825   1.429       .  S
N1825      O1829   1.261   1_554  A
N1825      O1830   1.262       .  A
N1828      O1832   1.262       .  A
N1828      O1831   1.262       .  A
C1833      C1834   1.401       .  A
C1833      C1838   1.398       .  A
C1833      H1840   1.072       .  S
C1834      C1835   1.413       .  A
C1835      C1836   1.410       .  A
C1835      N1842   1.426       .  S
C1836      C1837   1.404       .  A
C1836      H1841   1.082       .  S
C1837      C1838   1.406       .  A
C1838      N1839   1.430       .  S
N1839      O1843   1.262       .  A
N1839      O1844   1.262       .  A
N1842      O1846   1.260       .  A
N1842      O1845   1.262       .  A
C1847      C1848   1.407       .  A
C1847      C1852   1.404       .  A
C1847      H1854   1.084       .  S
C1848      C1849   1.408       .  A
C1849      C1850   1.396       .  A
C1849      N1856   1.429       .  S
C1850      C1851   1.404       .  A
C1850      H1855   1.085       .  S
C1851      C1852   1.408       .  A
C1852      N1853   1.429   1_554  S
N1853      O1857   1.262       .  A
N1853      O1858   1.262       .  A
N1856      O1860   1.262       .  A
N1856      O1859   1.262       .  A
C1861      C1862   1.399       .  A
C1861      C1866   1.384       .  A
C1861      H1868   1.085       .  S
C1862      C1863   1.411       .  A
C1863      C1864   1.418       .  A
C1863      N1870   1.427       .  S
C1864      C1865   1.412       .  A
C1864      H1869   1.083       .  S
C1865      C1866   1.417       .  A
C1866      N1867   1.431       .  S
N1867      O1871   1.261       .  A
N1867      O1872   1.262       .  A
N1870      O1874   1.262       .  A
N1870      O1873   1.262       .  A
C1875      C1876   1.400       .  A
C1875      C1880   1.391       .  A
C1875      H1882   1.085       .  S
C1876      C1877   1.414       .  A
C1877      C1878   1.410       .  A
C1877      N1884   1.427       .  S
C1878      C1879   1.404       .  A
C1878      H1883   1.084       .  S
C1879      C1880   1.404       .  A
C1880      N1881   1.422       .  S
N1881      O1885   1.262       .  A
N1881      O1886   1.262       .  A
N1884      O1888   1.261       .  A
N1884      O1887   1.262       .  A
C1889      C1890   1.409       .  A
C1889      C1894   1.403       .  A
C1889      H1896   1.084       .  S
C1890      C1891   1.411       .  A
C1891      C1892   1.399       .  A
C1891      N1898   1.428       .  S
C1892      C1893   1.404       .  A
C1892      H1897   1.085       .  S
C1893      C1894   1.407       .  A
C1894      N1895   1.429   1_554  S
N1895      O1899   1.262       .  A
N1895      O1900   1.262       .  A
N1898      O1902   1.261       .  A
N1898      O1901   1.262       .  A
C1903      C1904   1.398       .  A
C1903      C1908   1.391       .  A
C1903      H1910   1.084       .  S
C1904      C1905   1.417       .  A
C1905      C1906   1.405       .  A
C1905      N1912   1.429       .  S
C1906      C1907   1.399       .  A
C1906      H1911   1.084       .  S
C1907      C1908   1.411       .  A
C1908      N1909   1.431       .  S
N1909      O1913   1.261       .  A
N1909      O1914   1.262       .  A
C1917      C1918   1.400       .  A
C1917      C1922   1.406       .  A
C1917      H1924   1.084       .  S
C1918      C1919   1.409       .  A
C1919      C1920   1.397       .  A
C1919      N2700   1.430       .  S
C1920      C1921   1.401       .  A
C1920      H1925   1.084       .  S
C1921      C1922   1.415       .  A
C1922      N1923   1.430       .  S
N1923      O1927   1.262       .  A
N1923      O1928   1.262       .  A
N1926      C2693   1.430   1_545  S
N1926      O1930   1.262       .  A
N1926      O1929   1.262       .  A
C1931      C1932   1.398       .  A
C1931      C1936   1.398       .  A
C1931      H1938   1.085   1_554  S
C1932      C1933   1.405       .  A
C1933      C1934   1.396       .  A
C1933      N1940   1.431       .  S
C1934      C1935   1.405       .  A
C1934      H1939   1.084       .  S
C1935      C1936   1.414       .  A
C1936      N1937   1.428       .  S
N1937      O1942   1.261       .  A
N1940      O1944   1.262       .  A
N1940      O1943   1.262       .  A
C1945      C1946   1.410       .  A
C1945      C1950   1.392       .  A
C1945      H1952   1.083       .  S
C1946      C1947   1.415       .  A
C1947      C1948   1.405       .  A
C1947      N1954   1.429       .  S
C1948      C1949   1.406       .  A
C1948      H1953   1.084       .  S
C1949      C1950   1.406       .  A
C1950      N1951   1.430       .  S
N1951      O1955   1.262       .  A
N1951      O1956   1.262       .  A
N1954      O1958   1.262       .  A
N1954      O1957   1.262       .  A
C1959      C1960   1.401       .  A
C1959      C1964   1.399       .  A
C1959      H1966   1.084       .  S
C1960      C1961   1.411       .  A
C1961      C1962   1.398       .  A
C1961      N1968   1.427       .  S
C1962      C1963   1.398       .  A
C1962      H1967   1.084       .  S
C1963      C1964   1.407       .  A
C1964      N1965   1.431       .  S
N1965      O1969   1.262       .  A
N1965      O1970   1.262       .  A
N1968      O1972   1.262       .  A
N1968      O1971   1.262       .  A
C1973      C1974   1.402       .  A
C1973      C2752   1.409       .  A
C1973      H1980   1.083       .  S
C1974      C1975   1.408       .  A
C1975      C1976   1.399       .  A
C1975      N1982   1.424       .  S
C1976      C2751   1.398       .  A
C1976      H1981   1.084       .  S
C1977      C2750   1.401   1_545  A
C1977      C1978   1.413       .  A
C1978      C2747   1.407   1_545  A
C1978      N1979   1.429       .  S
N1979      O1983   1.261       .  A
N1979      O1984   1.261       .  A
N1982      O1986   1.261       .  A
N1982      O1985   1.262       .  A
C1987      C1988   1.409       .  A
C1987      C1992   1.408       .  A
C1987      H1994   1.083       .  S
C1988      C1989   1.404       .  A
C1989      C1990   1.391       .  A
C1989      N1996   1.433       .  S
C1990      C1991   1.410       .  A
C1990      H1995   1.085       .  S
C1991      C1992   1.410       .  A
C1992      N1993   1.428       .  S
N1993      O1997   1.262       .  A
N1993      O1998   1.262       .  A
N1996      O2000   1.262       .  A
N1996      O1999   1.261       .  A
C2001      C2002   1.397       .  A
C2001      C2006   1.394       .  A
C2001      H2008   1.080       .  S
C2002      C2003   1.415       .  A
C2003      C2004   1.410       .  A
C2003      N2010   1.441       .  S
C2004      C2005   1.402       .  A
C2004      H2009   1.081       .  S
C2005      C2006   1.408       .  A
C2006      N2007   1.428       .  S
N2007      O2011   1.261       .  A
N2007      O2012   1.261       .  A
N2010      O2014   1.263       .  A
N2010      O2013   1.263       .  A
C2015      C2016   1.402       .  A
C2015      C2020   1.409       .  A
C2015      H2022   1.084       .  S
C2016      C2017   1.407       .  A
C2017      C2018   1.399       .  A
C2017      N2024   1.427       .  S
C2018      C2793   1.405       .  A
C2018      H2023   1.084       .  S
C2019      C2792   1.405   1_545  A
C2019      C2794   1.418       .  A
C2020      C2793   1.418       .  A
C2020      N2795   1.427       .  S
N2021      C2794   1.426       .  S
N2021      O2025   1.262       .  A
N2021      O2026   1.262       .  A
N2024      O2028   1.262       .  A
N2024      O2027   1.262       .  A
C2029      C2030   1.403       .  A
C2030      C2031   1.411       .  A
C2031      C2032   1.397       .  A
C2031      N2038   1.430       .  S
C2032      C2033   1.396       .  A
C2032      H2037   1.079       .  S
C2034      N2035   1.429       .  S
N2035      O2039   1.261       .  A
N2035      O2040   1.262       .  A
N2038      O2042   1.262       .  A
N2038      O2041   1.262       .  A
C2043      C2044   1.410       .  A
C2043      C2048   1.392       .  A
C2043      H2050   1.084       .  S
C2044      C2045   1.410       .  A
C2046      H2051   1.084       .  S
C2047      C2048   1.404       .  A
C2048      N2049   1.432       .  S
N2049      O2053   1.261       .  A
N2049      O2054   1.262       .  A
N2052      O2056   1.262       .  A
C2057      C2058   1.408       .  A
C2057      C2062   1.405       .  A
C2058      C2059   1.416       .  A
C2059      C2060   1.400       .  A
C2059      N2066   1.426       .  S
C2060      C2061   1.404       .  A
C2060      H2065   1.084       .  S
C2061      C2062   1.416       .  A
N2063      O2067   1.262       .  A
N2063      O2068   1.262       .  A
N2066      O2070   1.262       .  A
N2066      O2069   1.262       .  A
C2071      C2072   1.403       .  A
C2071      C2076   1.394       .  A
C2071      H2078   1.085       .  S
C2072      C2073   1.407       .  A
C2073      C2074   1.402       .  A
C2073      N2080   1.428       .  S
C2074      C2075   1.407       .  A
C2074      H2079   1.084       .  S
C2075      C2076   1.410       .  A
C2076      N2077   1.429       .  S
N2077      O2081   1.261       .  A
N2077      O2082   1.262       .  A
N2080      O2084   1.262       .  A
N2080      O2083   1.261       .  A
C2085      C2086   1.405       .  A
C2085      C2090   1.397       .  A
C2085      H2092   1.085       .  S
C2086      C2087   1.407       .  A
C2087      C2088   1.404       .  A
C2087      N2094   1.429       .  S
C2088      C2089   1.410       .  A
C2088      H2093   1.084       .  S
C2089      C2090   1.410       .  A
C2090      N2091   1.429       .  S
N2091      O2095   1.262       .  A
N2091      O2096   1.262       .  A
N2094      O2098   1.262       .  A
N2094      O2097   1.262       .  A
C2099      C2100   1.406       .  A
C2099      C2104   1.404       .  A
C2099      H2106   1.084       .  S
C2100      C2101   1.415       .  A
C2101      C2102   1.399       .  A
C2101      N2108   1.428       .  S
C2102      C2103   1.405       .  A
C2102      H2107   1.084       .  S
C2103      C2104   1.417       .  A
C2104      N2105   1.429       .  S
N2105      O2109   1.262       .  A
N2105      O2110   1.262       .  A
N2108      O2112   1.262       .  A
N2108      O2111   1.262       .  A
C2113      C2114   1.405       .  A
C2113      C2118   1.402       .  A
C2113      H2120   1.084       .  S
C2114      C2115   1.411       .  A
C2115      C2116   1.395       .  A
C2115      N2122   1.430       .  S
C2116      C2117   1.407       .  A
C2116      H2121   1.083       .  S
C2117      C2118   1.415       .  A
C2118      N2119   1.428       .  S
N2119      O2123   1.262       .  A
N2119      O2124   1.262       .  A
N2122      O2126   1.262       .  A
N2122      O2125   1.262       .  A
C2127      C2128   1.402   1_545  A
C2127      C2132   1.400       .  A
C2127      H2134   1.084       .  S
C2128      C2129   1.416       .  A
C2129      C2130   1.402       .  A
C2129      N2136   1.430       .  S
C2130      C2131   1.406   1_565  A
C2130      H2135   1.083       .  S
C2131      C2132   1.420       .  A
C2132      N2907   1.429       .  S
N2133      C2906   1.427       .  S
N2133      O2911   1.262       .  A
N2133      O2138   1.262       .  A
N2136      O2140   1.262       .  A
N2136      O2139   1.262       .  A
O2137      N2907   1.262       .  A
C2141      C2142   1.398       .  A
C2141      C2146   1.397       .  A
C2141      H2148   1.084       .  S
C2142      C2143   1.412       .  A
C2143      C2144   1.415       .  A
C2143      N2150   1.428       .  S
C2144      C2145   1.409       .  A
C2144      H2149   1.084       .  S
C2145      C2146   1.413       .  A
C2146      N2147   1.428       .  S
N2147      O2151   1.262       .  A
N2147      O2152   1.261       .  A
N2150      O2154   1.262       .  A
N2150      O2153   1.262       .  A
C2155      C2156   1.406       .  A
C2155      C2160   1.399       .  A
C2155      H2162   1.084       .  S
C2156      C2157   1.415       .  A
C2157      C2158   1.404       .  A
C2157      N2164   1.429       .  S
C2158      C2159   1.407       .  A
C2158      H2163   1.083       .  S
C2159      C2160   1.415       .  A
C2160      N2161   1.429       .  S
N2161      O2165   1.262       .  A
N2161      O2166   1.262       .  A
N2164      O2168   1.262       .  A
N2164      O2167   1.262       .  A
C2169      C2170   1.400       .  A
C2169      C2174   1.403       .  A
C2169      H2176   1.084       .  S
C2170      C2171   1.410       .  A
C2171      C2172   1.395       .  A
C2171      N2178   1.430       .  S
C2172      C2173   1.402       .  A
C2172      H2177   1.084       .  S
C2173      C2174   1.419       .  A
C2174      N2175   1.430       .  S
N2175      O2179   1.262       .  A
N2175      O2180   1.262       .  A
N2178      O2182   1.262       .  A
N2178      O2181   1.262       .  A
C2183      C2184   1.404       .  A
C2183      C2188   1.405       .  A
C2183      H2190   1.084       .  S
C2184      C2185   1.411       .  A
C2185      C2186   1.397       .  A
C2185      N2192   1.429       .  S
C2186      C2187   1.400       .  A
C2186      H2191   1.084       .  S
C2187      C2188   1.408       .  A
C2188      N2189   1.432       .  S
N2189      O2193   1.261       .  A
N2189      O2194   1.263       .  A
N2192      O2196   1.262       .  A
N2192      O2195   1.262       .  A
C2197      C2972   1.398       .  A
C2197      C2202   1.396       .  A
C2197      H2204   1.084       .  S
C2198      C2971   1.389       .  A
C2198      C2199   1.410       .  A
C2199      C2200   1.416       .  A
C2199      N2206   1.429   1_565  S
C2200      C2201   1.411       .  A
C2200      H2205   1.083   1_565  S
C2201      C2976   1.411       .  A
C2202      C2975   1.412       .  A
C2202      N2203   1.429       .  S
N2203      O2207   1.262       .  A
N2203      O2208   1.262       .  A
N2206      O2210   1.261       .  A
N2206      O2209   1.262   1_545  A
C2211      C2986   1.407       .  A
C2211      C2216   1.401       .  A
C2211      H2218   1.083       .  S
C2212      C2985   1.406   1_545  A
C2212      C2213   1.417       .  A
C2213      C2214   1.396       .  A
C2213      N2220   1.430       .  S
C2214      C2215   1.404       .  A
C2214      H2219   1.084       .  S
C2215      C2990   1.415   1_545  A
C2216      C2989   1.413       .  A
C2216      N2217   1.429       .  S
N2217      O2221   1.262       .  A
N2217      O2222   1.262       .  A
N2220      O2224   1.262       .  A
N2220      O2223   1.262       .  A
C2225      C2226   1.399       .  A
C2225      C2230   1.396       .  A
C2225      H2232   1.081       .  S
C2226      C2227   1.405       .  A
C2227      C2228   1.395       .  A
C2227      N2234   1.431       .  S
C2228      C2229   1.403       .  A
C2228      H2233   1.085       .  S
C2229      C2230   1.404       .  A
C2230      N2231   1.429       .  S
N2231      O2235   1.262       .  A
N2231      O2236   1.262       .  A
N2234      O2238   1.262       .  A
N2234      O2237   1.262       .  A
C2239      H2246   1.085       .  S
C2240      C2241   1.405       .  A
C2241      C2242   1.403       .  A
C2241      N2248   1.429       .  S
C2242      C2243   1.408       .  A
C2242      H2247   1.084       .  S
C2243      C2244   1.409       .  A
C2244      N2245   1.431       .  S
N2245      O2250   1.261       .  A
N2248      O2252   1.262       .  A
N2248      O2251   1.262   1_655  A
C2253      C2254   1.405       .  A
C2253      C2258   1.408       .  A
C2253      H2260   1.084       .  S
C2254      C2255   1.405       .  A
C2255      C2256   1.399       .  A
C2255      N2262   1.429       .  S
C2256      C2257   1.407       .  A
C2256      H2261   1.085       .  S
C2257      C2258   1.411       .  A
C2258      N2259   1.428       .  S
N2259      O2263   1.262       .  A
N2259      O2264   1.262       .  A
N2262      O2266   1.261       .  A
N2262      O2265   1.262       .  A
C2267      C2268   1.409       .  A
C2267      C2272   1.398       .  A
C2267      H2274   1.083       .  S
C2268      C2269   1.416       .  A
C2269      C2270   1.407       .  A
C2269      N2276   1.428       .  S
C2270      C2271   1.408       .  A
C2270      H2275   1.083       .  S
C2271      C2272   1.414       .  A
C2272      N2273   1.430       .  S
N2273      O2277   1.262       .  A
N2273      O2278   1.262       .  A
N2276      O2280   1.262       .  A
N2276      O2279   1.262       .  A
C2281      C2282   1.407       .  A
C2281      C2286   1.400       .  A
C2281      H2288   1.084       .  S
C2282      C2283   1.411       .  A
C2283      C2284   1.403       .  A
C2283      N2290   1.428       .  S
C2284      C2285   1.404       .  A
C2284      H2289   1.084       .  S
C2285      C2286   1.408       .  A
C2286      N2287   1.431       .  S
N2287      O2291   1.262       .  A
N2287      O2292   1.262       .  A
N2290      O2294   1.262       .  A
N2290      O2293   1.262       .  A
C2295      C2300   1.404       .  A
C2295      H2302   1.084       .  S
C2296      C2297   1.414       .  A
C2297      N2304   1.430       .  S
C2298      C2299   1.395   1_455  A
C2298      H2303   1.084       .  S
C2299      C2300   1.412       .  A
C2300      N2301   1.429       .  S
N2301      O2305   1.261       .  A
N2301      O2306   1.262       .  A
N2304      O2308   1.262       .  A
N2304      O2307   1.262       .  A
C2309      C2310   1.409       .  A
C2309      C2314   1.402       .  A
C2309      H2316   1.084       .  S
C2310      C2311   1.414       .  A
C2311      C2312   1.409       .  A
C2312      C2313   1.411       .  A
C2312      H2317   1.083       .  S
C2313      C2314   1.414       .  A
C2314      N2315   1.428       .  S
N2315      O2319   1.261       .  A
N2315      O2320   1.262       .  A
N2318      O2321   1.262       .  A
C2323      N2324   1.369       .  A
C2323      N2328   1.369       .  A
C2323      C3087   1.493       .  S
N2324      C2325   1.360       .  A
C2325      N2326   1.343       .  A
C2325      C3070   1.473       .  S
N2326      C2327   1.342       .  A
C2327      N2328   1.360       .  A
C2327      C3056   1.468       .  S
C2329      N2330   1.370       .  A
C2329      N2334   1.366       .  A
C2329      C3042   1.492       .  S
N2330      C2331   1.362       .  A
C2331      N2332   1.344       .  A
C2331      C3031   1.466       .  S
N2332      C2333   1.344       .  A
C2333      N2334   1.352       .  A
C2335      N2336   1.365       .  A
C2335      N2340   1.370       .  A
C2335      C2355   1.493       .  S
N2336      C2337   1.361       .  A
C2337      N2338   1.368       .  A
C2337      C2377   1.496       .  S
N2338      C2339   1.368   1_655  A
C2339      N2340   1.369   1_455  A
O2341     Cr2359   1.998       .  S
O2341      C2349   1.258       .  A
O2342     Cr2359   1.969       .  S
O2342      C2343   1.262       .  A
C2343      C2958   1.472       .  S
C2343      O2344   1.271       .  A
O2344     Cr2360   2.022       .  S
O2345     Cr2360   1.980       .  S
O2345      C2346   1.263       .  A
C2346      C2989   1.487       .  S
C2346      O2347   1.265       .  A
O2348     Cr2361   2.009       .  S
C2349      C2975   1.485       .  S
O2350      C2358   1.255   1_545  A
O2351     Cr2359   1.989       .  S
O2351      C2352   1.257       .  A
C2352      C3073   1.465       .  S
C2352      O2353   1.262       .  A
O2353     Cr2360   1.986       .  S
O2354     Cr2360   2.022       .  S
C2355      O2356   1.264       .  A
O2356     Cr2361   1.994       .  S
O2357     Cr2361   2.023       .  S
O2357      C2358   1.273       .  A
C2358      C3000   1.462       .  S
Cr2359     O2362   1.774       .  S
Cr2360     O2362   1.774       .  S
O2363     Cr2381   1.975       .  S
O2363      C2371   1.258       .  A
O2364     Cr2381   1.992       .  S
O2364      C2365   1.259       .  A
C2365      C2916   1.482       .  S
C2365      O2366   1.263       .  A
O2366     Cr2382   2.009       .  S
O2367     Cr2382   2.014       .  S
O2367      C2368   1.271       .  A
C2368      C2930   1.490       .  S
C2368      O2369   1.264       .  A
O2369     Cr2383   1.970       .  S
O2370     Cr2383   2.014       .  S
O2370      C2371   1.264       .  A
C2371      C2961   1.477       .  S
O2372     Cr2381   2.002       .  S
O2372      C2380   1.263       .  A
O2373     Cr2381   1.961       .  S
O2373      C2374   1.257       .  A
C2374      C2947   1.485       .  S
C2374      O2375   1.273       .  A
O2375     Cr2382   2.018       .  S
O2376     Cr2382   2.016       .  S
O2376      C2377   1.267       .  A
C2377      O2378   1.262       .  A
O2378     Cr2383   2.009       .  S
O2379     Cr2383   1.974       .  S
O2379      C2380   1.262       .  A
C2380      C3017   1.468       .  S
Cr2381     O2384   1.773       .  S
Cr2382     O2384   1.773       .  S
Cr2383     O2384   1.776       .  S
O2385     Cr2403   2.001       .  S
O2385      C2393   1.260       .  A
O2386     Cr2403   1.980       .  S
O2386      C2387   1.257       .  A
C2387      C2972   1.476       .  S
O2388     Cr2404   2.027       .  S
O2389     Cr2404   1.968       .  S
C2390      C2902   1.486       .  S
C2390      O2391   1.272       .  A
O2391     Cr2405   2.016       .  S
O2392     Cr2405   2.003       .  S
O2392      C2393   1.259       .  A
C2393      C2919   1.487       .  S
O2394     Cr2403   1.957       .  S
O2394      C2402   1.256       .  A
O2395      C2396   1.260       .  A
C2396      C3028   1.470       .  S
C2396      O2397   1.263       .  A
O2397     Cr2404   1.992       .  S
O2398     Cr2404   2.023       .  S
O2398      C2399   1.267       .  A
O2400     Cr2405   2.010       .  S
O2401     Cr2405   2.028       .  S
O2401      C2402   1.274       .  A
C2402      C3059   1.475       .  S
Cr2403     O2406   1.779       .  S
Cr2405     O2406   1.786       .  S
C2407      N2408   1.369       .  A
C2407      N2412   1.363       .  A
C2407      C2891   1.485       .  S
N2408      C2409   1.364       .  A
C2409      N2410   1.346       .  A
C2409      C2944   1.472       .  S
N2410      C2411   1.341       .  A
C2411      N2412   1.350       .  A
C2411      C3003   1.452       .  S
C2413      N2414   1.373       .  A
C2413      N2418   1.369       .  A
C2413      C2874   1.497       .  S
N2414      C2415   1.362       .  A
C2415      N2416   1.344       .  A
C2415      C2860   1.473       .  S
N2416      C2417   1.344       .  A
C2417      N2418   1.358       .  A
C2417      C2846   1.468       .  S
C2419      N2420   1.370       .  A
C2419      N2424   1.372       .  A
C2419      C2832   1.499       .  S
N2420      C2421   1.360       .  A
C2421      N2422   1.344       .  A
C2421      C2818   1.475       .  S
N2422      C2423   1.340       .  A
C2423      N2424   1.359       .  A
C2423      C2804   1.468       .  S
C2425      N2426   1.370       .  A
C2425      N2430   1.367       .  A
C2425      C2445   1.497       .  S
N2426      C2427   1.368       .  A
C2427      N2428   1.363       .  A
C2427      C2467   1.504       .  S
N2428      C2429   1.368       .  A
C2429      N2430   1.365       .  A
C2429      C2489   1.494       .  S
O2431      C2439   1.257       .  A
O2432     Cr2449   1.991       .  S
O2432      C2433   1.259       .  A
C2433      C2790   1.477       .  S
C2433      O2434   1.261       .  A
O2434     Cr2450   2.003       .  S
O2435     Cr2450   2.011       .  S
O2435      C2436   1.268       .  A
C2436      C3045   1.491       .  S
C2436      O2437   1.260       .  A
O2437     Cr2451   1.970       .  S
O2438      C2439   1.266       .  A
C2439      C2779   1.471       .  S
O2440     Cr2449   1.992       .  S
O2440      C2448   1.261       .  A
O2441     Cr2449   1.966       .  S
O2441      C2442   1.259       .  A
C2442      C2863   1.485       .  S
C2442      O2443   1.273       .  A
O2443     Cr2450   2.026       .  S
O2444     Cr2450   2.004       .  S
O2444      C2445   1.266       .  A
C2445      O2446   1.269       .  A
O2446     Cr2451   2.023       .  S
O2447     Cr2451   1.971       .  S
O2447      C2448   1.260       .  A
Cr2449     O2452   1.772       .  S
Cr2450     O2452   1.777       .  S
Cr2451     O2452   1.777       .  S
O2453     Cr2471   1.970       .  S
O2453      C2461   1.262       .  A
O2454      C2455   1.260       .  A
C2455      C2751   1.477       .  S
C2455      O2456   1.256       .  A
O2457     Cr2472   2.024       .  S
O2457      C2458   1.272       .  A
C2458      C3084   1.486       .  S
C2458      O2459   1.260       .  A
O2459     Cr2473   1.964       .  S
O2460     Cr2473   2.044       .  S
O2460      C2461   1.273       .  A
C2461      C2793   1.495       .  S
O2462     Cr2471   1.999       .  S
O2462      C2470   1.259       .  A
O2463     Cr2471   1.963       .  S
O2463      C2464   1.257       .  A
C2464      O2465   1.277       .  A
O2465     Cr2472   2.035       .  S
O2466     Cr2472   1.998       .  S
O2466      C2467   1.263       .  A
C2467      O2468   1.272       .  A
O2468     Cr2473   2.037       .  S
O2469     Cr2473   1.974       .  S
O2469      C2470   1.261       .  A
C2470      C2762   1.470       .  S
Cr2471     O2474   1.777       .  S
Cr2472     O2474   1.782       .  S
Cr2473     O2474   1.777       .  S
O2475     Cr2493   1.975       .  S
O2475      C2483   1.254       .  A
O2476     Cr2493   1.988       .  S
O2476      C2477   1.260       .  A
C2477      C2776   1.475       .  S
C2477      O2478   1.265       .  A
O2478     Cr2494   2.011       .  S
O2479     Cr2494   1.977       .  S
O2479      C2480   1.267       .  A
C2480      C2888   1.490       .  S
C2480      O2481   1.271       .  A
O2481     Cr2495   2.006       .  S
O2482     Cr2495   2.014       .  S
O2482      C2483   1.263       .  A
C2483      C2748   1.480       .  S
O2484     Cr2493   1.971       .  S
O2484      C2492   1.262       .  A
O2485     Cr2493   1.997       .  S
O2485      C2486   1.259       .  A
C2486      C2734   1.476       .  S
C2486      O2487   1.264       .  A
O2487     Cr2494   1.995       .  S
O2488     Cr2494   1.992       .  S
O2488      C2489   1.258       .  A
C2489      O2490   1.266       .  A
O2490     Cr2495   2.021       .  S
O2491     Cr2495   2.017       .  S
O2491      C2492   1.273       .  A
C2492      C2849   1.481       .  S
Cr2493     O2496   1.778       .  S
Cr2494     O2496   1.775       .  S
Cr2495     O2496   1.778       .  S
C2497      N2498   1.370       .  A
C2497      N2502   1.375       .  A
C2497      C2720   1.495       .  S
N2498      C2499   1.352       .  A
C2499      N2500   1.337       .  A
C2499      C2737   1.461       .  S
N2500      C2501   1.344       .  A
C2501      N2502   1.365       .  A
C2501      C2765   1.484       .  S
C2503      N2508   1.366       .  A
C2503      C2986   1.497       .  S
N2504      C2505   1.361       .  A
C2505      C2692   1.465   1_546  S
N2506      C2507   1.344   1_554  A
C2507      N2508   1.356       .  A
C2507      C2706   1.462   1_556  S
C2509      N2510   1.370       .  A
C2509      N2514   1.370       .  A
C2509      C2933   1.491       .  S
N2510      C2511   1.356   1_556  A
C2511      N2512   1.339       .  A
C2511      C2667   1.461       .  S
N2512      C2513   1.339       .  A
C2513      N2514   1.359   1_554  A
C2513      C2681   1.462       .  S
C2515      N2516   1.368       .  A
C2515      N2520   1.370       .  A
C2515      C2579   1.504       .  S
N2516      C2517   1.367       .  A
C2517      N2518   1.362       .  A
C2517      C2535   1.498       .  S
N2518      C2519   1.366       .  A
C2519      N2520   1.370       .  A
O2521     Cr2539   1.967       .  S
O2521      C2529   1.263       .  A
O2522     Cr2539   1.970       .  S
O2522      C2523   1.251       .  A
C2523      C2639   1.490       .  S
C2523      O2524   1.262       .  A
O2525     Cr2540   2.005       .  S
O2525      C2526   1.267       .  A
C2526      C2835   1.489       .  S
C2526      O2527   1.264       .  A
O2527     Cr2541   1.980       .  S
O2528      C2529   1.271       .  A
C2529      C2650   1.485       .  S
O2530      C2538   1.252       .  A
O2531      C2532   1.262       .  A
C2532      C2709   1.481       .  S
C2532      O2533   1.276       .  A
O2533     Cr2540   2.028       .  S
O2534     Cr2540   2.012       .  S
O2534      C2535   1.269       .  A
C2535      O2536   1.267       .  A
O2536     Cr2541   2.013       .  S
O2537     Cr2541   1.986       .  S
O2537      C2538   1.261       .  A
C2538      C2678   1.473       .  S
Cr2540     O2542   1.775       .  S
Cr2541     O2542   1.772       .  S
O2543     Cr2561   1.978       .  S
O2543      C2551   1.260       .  A
O2544     Cr2561   1.993       .  S
O2544      C2545   1.261       .  A
C2545      C2653   1.476       .  S
C2545      O2546   1.259       .  A
O2546     Cr2562   1.995       .  S
O2547     Cr2562   2.015       .  S
O2547      C2548   1.270       .  A
C2548      C2877   1.497       .  S
C2548      O2549   1.267       .  A
O2549     Cr2563   1.982       .  S
O2550     Cr2563   2.039       .  S
O2550      C2551   1.269       .  A
C2551      C2608   1.497       .  S
O2552     Cr2561   2.013       .  S
O2552      C2560   1.263       .  A
O2553     Cr2561   1.969       .  S
O2553      C2554   1.260       .  A
C2554      C2622   1.484       .  S
C2554      O2555   1.272       .  A
O2555     Cr2562   2.020       .  S
O2556     Cr2562   2.006   1_545  S
O2556      C2557   1.264       .  A
C2557      O2558   1.266       .  A
O2558     Cr2563   2.017   1_545  S
O2559     Cr2563   1.988       .  S
O2559      C2560   1.264       .  A
C2560      C2695   1.481       .  S
Cr2561     O2564   1.777       .  S
Cr2562     O2564   1.782       .  S
Cr2563     O2564   1.775       .  S
O2565     Cr2583   1.953       .  S
O2565      C2573   1.254       .  A
O2566     Cr2583   1.990       .  S
O2566      C2567   1.256       .  A
C2567      C2611   1.479       .  S
C2567      O2568   1.260       .  A
O2568     Cr2584   2.008       .  S
O2569     Cr2584   2.006       .  S
O2569      C2570   1.267       .  A
C2570      C2723   1.485       .  S
C2570      O2571   1.262       .  A
O2571     Cr2585   1.974       .  S
O2572     Cr2585   2.050       .  S
O2572      C2573   1.271       .  A
C2573      C2636   1.485       .  S
O2574     Cr2583   1.996       .  S
O2574      C2582   1.260       .  A
O2575     Cr2583   1.956       .  S
O2575      C2576   1.258       .  A
C2576      C2664   1.481       .  S
C2576      O2577   1.275       .  A
O2577     Cr2584   2.035       .  S
O2578     Cr2584   2.003       .  S
O2578      C2579   1.268       .  A
C2579      O2580   1.273       .  A
O2580     Cr2585   2.037       .  S
O2581     Cr2585   1.984       .  S
O2581      C2582   1.263       .  A
C2582      C2594   1.467       .  S
Cr2583     O2586   1.765       .  S
Cr2584     O2586   1.775       .  S
Cr2585     O2586   1.782       .  S
C2587      N2592   1.372       .  A
C2587      C2905   1.497       .  S
N2588      C2589   1.362   1_556  A
C2589      C2625   1.473       .  S
N2590      C2591   1.344       .  A
C2591      N2592   1.362   1_554  A
C2591      C2597   1.474       .  S
C2593      C2594   1.404       .  A
C2593      C2598   1.403       .  A
C2593      H2600   1.084       .  S
C2594      C2595   1.403       .  A
C2595      C2596   1.396       .  A
C2595      N2602   1.429       .  S
C2596      C2597   1.408       .  A
C2596      H2601   1.085       .  S
C2597      C2598   1.408       .  A
C2598      N2599   1.427   1_554  S
N2599      O2603   1.262       .  A
N2599      O2604   1.262       .  A
N2602      O2606   1.262       .  A
N2602      O2605   1.262       .  A
C2607      C2608   1.403       .  A
C2607      C2612   1.401       .  A
C2607      H2614   1.075       .  S
C2608      C2609   1.413       .  A
C2609      C2610   1.409       .  A
C2609      N2616   1.425       .  S
C2610      C2611   1.402       .  A
C2610      H2615   1.081       .  S
C2611      C2612   1.407       .  A
C2612      N2613   1.429       .  S
N2613      O2617   1.261       .  A
N2613      O2618   1.262       .  A
N2616      O2620   1.259       .  A
N2616      O2619   1.261       .  A
C2621      C2622   1.409       .  A
C2621      C2626   1.405       .  A
C2621      H2628   1.084       .  S
C2622      C2623   1.411       .  A
C2623      C2624   1.396       .  A
C2623      N2630   1.429       .  S
C2624      C2625   1.404       .  A
C2624      H2629   1.085       .  S
C2625      C2626   1.408       .  A
C2626      N2627   1.429   1_554  S
N2627      O2631   1.262       .  A
N2627      O2632   1.262       .  A
N2630      O2634   1.261       .  A
N2630      O2633   1.262       .  A
C2635      C2636   1.399       .  A
C2635      C2640   1.383       .  A
C2635      H2642   1.085       .  S
C2636      C2637   1.413       .  A
C2637      C2638   1.418       .  A
C2637      N2644   1.427       .  S
C2638      C2639   1.411       .  A
C2638      H2643   1.083       .  S
C2639      C2640   1.417       .  A
C2640      N2641   1.431       .  S
N2641      O2645   1.261       .  A
N2641      O2646   1.262       .  A
N2644      O2648   1.261       .  A
N2644      O2647   1.262       .  A
C2649      C2650   1.400       .  A
C2649      C2654   1.395       .  A
C2649      H2656   1.084       .  S
C2650      C2651   1.415       .  A
C2651      C2652   1.409       .  A
C2651      N2658   1.428       .  S
C2652      C2653   1.403       .  A
C2652      H2657   1.083       .  S
C2653      C2654   1.405       .  A
C2654      N2655   1.422       .  S
N2655      O2659   1.262       .  A
N2655      O2660   1.261       .  A
N2658      O2662   1.261       .  A
N2658      O2661   1.262       .  A
C2663      C2664   1.408       .  A
C2663      C2668   1.402       .  A
C2663      H2670   1.084       .  S
C2664      C2665   1.412       .  A
C2665      C2666   1.397       .  A
C2665      N2672   1.428       .  S
C2666      C2667   1.401       .  A
C2666      H2671   1.085       .  S
C2667      C2668   1.407       .  A
C2668      N2669   1.429   1_554  S
N2669      O2673   1.262       .  A
N2669      O2674   1.261       .  A
N2672      O2676   1.261       .  A
N2672      O2675   1.262       .  A
C2677      C2678   1.396       .  A
C2677      C2682   1.388       .  A
C2677      H2684   1.084       .  S
C2678      C2679   1.419       .  A
C2679      C2680   1.405       .  A
C2679      N2686   1.431       .  S
C2680      C2681   1.399       .  A
C2680      H2685   1.084       .  S
C2681      C2682   1.412       .  A
C2682      N2683   1.431       .  S
N2683      O2687   1.261       .  A
N2683      O2688   1.263       .  A
C2691      C2692   1.397       .  A
C2691      C2696   1.404       .  A
C2691      H2698   1.084       .  S
C2692      C2693   1.410       .  A
C2693      C2694   1.399       .  A
C2694      C2695   1.403       .  A
C2694      H2699   1.084       .  S
C2695      C2696   1.415       .  A
C2696      N2697   1.428       .  S
N2697      O2701   1.262       .  A
N2697      O2702   1.263       .  A
N2700      O2704   1.262       .  A
N2700      O2703   1.262   1_554  A
C2705      C2706   1.399       .  A
C2705      C2710   1.400       .  A
C2705      H2712   1.084   1_554  S
C2706      C2707   1.408       .  A
C2707      C2708   1.399       .  A
C2707      N2714   1.433       .  S
C2708      C2709   1.405       .  A
C2708      H2713   1.084       .  S
C2709      C2710   1.415       .  A
C2710      N2711   1.428       .  S
N2711      O2716   1.262       .  A
N2714      O2718   1.262       .  A
N2714      O2717   1.262       .  A
C2719      C2720   1.409       .  A
C2719      C2724   1.399       .  A
C2719      H2726   1.083       .  S
C2720      C2721   1.415       .  A
C2721      C2722   1.402       .  A
C2721      N2728   1.426       .  S
C2722      C2723   1.404       .  A
C2722      H2727   1.084       .  S
C2723      C2724   1.411       .  A
C2724      N2725   1.429       .  S
N2725      O2729   1.262       .  A
N2725      O2730   1.262       .  A
N2728      O2732   1.262       .  A
N2728      O2731   1.262       .  A
C2733      C2734   1.402       .  A
C2733      C2738   1.401       .  A
C2733      H2740   1.084       .  S
C2734      C2735   1.412       .  A
C2735      C2736   1.401       .  A
C2735      N2742   1.429       .  S
C2736      C2737   1.401       .  A
C2736      H2741   1.084       .  S
C2737      C2738   1.410       .  A
C2738      N2739   1.433       .  S
N2739      O2743   1.262       .  A
N2739      O2744   1.262       .  A
N2742      O2746   1.262       .  A
N2742      O2745   1.262       .  A
C2747      C2748   1.401       .  A
C2747      H2754   1.082       .  S
C2748      C2749   1.410       .  A
C2749      C2750   1.405       .  A
C2749      N2756   1.426       .  S
C2750      H2755   1.084       .  S
C2751      C2752   1.413       .  A
C2752      N2753   1.429       .  S
N2753      O2757   1.262       .  A
N2753      O2758   1.262       .  A
N2756      O2760   1.261       .  A
N2756      O2759   1.262       .  A
C2761      C2762   1.406       .  A
C2761      C2766   1.406       .  A
C2761      H2768   1.084       .  S
C2762      C2763   1.404       .  A
C2763      C2764   1.391       .  A
C2763      N2770   1.433       .  S
C2764      C2765   1.411       .  A
C2764      H2769   1.085       .  S
C2765      C2766   1.409       .  A
C2766      N2767   1.425       .  S
N2767      O2771   1.262       .  A
N2767      O2772   1.261       .  A
N2770      O2774   1.262       .  A
N2770      O2773   1.261       .  A
C2775      C2776   1.399       .  A
C2775      C2780   1.396       .  A
C2775      H2782   1.083       .  S
C2776      C2777   1.411       .  A
C2777      C2778   1.406       .  A
C2777      N2784   1.435       .  S
C2778      C2779   1.402       .  A
C2778      H2783   1.083       .  S
C2779      C2780   1.409       .  A
C2780      N2781   1.428       .  S
N2781      O2785   1.261       .  A
N2781      O2786   1.261       .  A
N2784      O2788   1.262       .  A
N2784      O2787   1.263       .  A
C2789      C2790   1.399       .  A
C2789      C2794   1.406   1_565  A
C2789      H2796   1.084       .  S
C2790      C2791   1.409       .  A
C2791      C2792   1.402       .  A
C2791      N2798   1.427       .  S
C2792      H2797   1.084       .  S
N2795      O2799   1.262       .  A
N2795      O2800   1.262       .  A
N2798      O2802   1.262       .  A
N2798      O2801   1.262       .  A
C2803      C2804   1.404       .  A
C2804      C2805   1.412       .  A
C2805      C2806   1.397       .  A
C2805      N2812   1.430       .  S
C2806      C2807   1.398       .  A
C2806      H2811   1.081       .  S
C2808      N2809   1.428       .  S
N2809      O2813   1.261       .  A
N2809      O2814   1.262       .  A
N2812      O2816   1.262       .  A
N2812      O2815   1.262       .  A
C2817      C2818   1.407       .  A
C2817      C2822   1.394       .  A
C2817      H2824   1.084       .  S
C2818      C2819   1.409       .  A
C2820      H2825   1.084       .  S
C2821      C2822   1.408       .  A
C2822      N2823   1.434       .  S
N2823      O2827   1.262       .  A
N2823      O2828   1.262       .  A
N2826      O2830   1.262       .  A
C2831      C2832   1.409       .  A
C2831      C2836   1.403       .  A
C2832      C2833   1.419       .  A
C2833      C2834   1.401       .  A
C2833      N2840   1.428       .  S
C2834      C2835   1.402       .  A
C2834      H2839   1.084       .  S
C2835      C2836   1.413       .  A
N2837      O2841   1.262       .  A
N2837      O2842   1.262       .  A
N2840      O2844   1.262       .  A
N2840      O2843   1.262       .  A
C2845      C2846   1.401       .  A
C2845      C2850   1.394       .  A
C2845      H2852   1.085       .  S
C2846      C2847   1.407       .  A
C2847      C2848   1.404       .  A
C2847      N2854   1.428       .  S
C2848      C2849   1.408       .  A
C2848      H2853   1.084       .  S
C2849      C2850   1.410       .  A
C2850      N2851   1.427       .  S
N2851      O2855   1.260       .  A
N2851      O2856   1.262       .  A
N2854      O2858   1.262       .  A
N2854      O2857   1.262       .  A
C2859      C2860   1.405       .  A
C2859      C2864   1.398       .  A
C2859      H2866   1.085       .  S
C2860      C2861   1.407       .  A
C2861      C2862   1.405       .  A
C2861      N2868   1.428       .  S
C2862      C2863   1.410       .  A
C2862      H2867   1.084       .  S
C2863      C2864   1.410       .  A
C2864      N2865   1.429       .  S
N2865      O2869   1.262       .  A
N2865      O2870   1.262       .  A
N2868      O2872   1.262       .  A
N2868      O2871   1.262       .  A
C2873      C2874   1.407       .  A
C2873      C2878   1.405       .  A
C2873      H2880   1.083       .  S
C2874      C2875   1.416       .  A
C2875      C2876   1.401       .  A
C2875      N2882   1.428       .  S
C2876      C2877   1.405       .  A
C2876      H2881   1.084       .  S
C2877      C2878   1.417       .  A
C2878      N2879   1.429       .  S
N2879      O2883   1.262       .  A
N2879      O2884   1.262   1_565  A
N2882      O2886   1.262       .  A
N2882      O2885   1.261       .  A
C2887      C2888   1.409       .  A
C2887      C2892   1.403       .  A
C2887      H2894   1.083       .  S
C2888      C2889   1.415       .  A
C2889      C2890   1.396       .  A
C2889      N2896   1.430       .  S
C2890      C2891   1.404       .  A
C2890      H2895   1.084       .  S
C2891      C2892   1.411       .  A
C2892      N2893   1.428       .  S
N2893      O2897   1.262       .  A
N2893      O2898   1.262       .  A
N2896      O2900   1.262       .  A
N2896      O2899   1.262       .  A
C2901      C2902   1.404       .  A
C2901      C2906   1.404       .  A
C2901      H2908   1.084       .  S
C2902      C2903   1.410       .  A
C2903      C2904   1.401       .  A
C2903      N2910   1.429       .  S
C2904      C2905   1.408       .  A
C2904      H2909   1.083       .  S
C2905      C2906   1.417       .  A
N2907      O2912   1.262       .  A
N2910      O2914   1.262       .  A
N2910      O2913   1.262       .  A
C2915      C2916   1.401       .  A
C2915      C2920   1.404       .  A
C2915      H2922   1.083       .  S
C2916      C2917   1.412       .  A
C2917      C2918   1.410       .  A
C2917      N2924   1.429       .  S
C2918      C2919   1.404       .  A
C2918      H2923   1.082       .  S
C2919      C2920   1.408       .  A
C2920      N2921   1.425       .  S
N2921      O2925   1.261       .  A
N2921      O2926   1.262       .  A
N2924      O2928   1.262       .  A
N2924      O2927   1.262       .  A
C2929      C2930   1.408       .  A
C2929      C2934   1.402       .  A
C2929      H2936   1.084       .  S
C2930      C2931   1.414       .  A
C2931      C2932   1.398       .  A
C2931      N2938   1.429       .  S
C2932      C2933   1.406       .  A
C2932      H2937   1.083       .  S
C2933      C2934   1.415       .  A
C2934      N2935   1.429       .  S
N2935      O2939   1.262       .  A
N2935      O2940   1.262       .  A
N2938      O2942   1.262       .  A
N2938      O2941   1.262       .  A
C2943      C2944   1.401       .  A
C2943      C2948   1.404       .  A
C2943      H2950   1.084       .  S
C2944      C2945   1.413       .  A
C2945      C2946   1.394       .  A
C2945      N2952   1.430       .  S
C2946      C2947   1.401       .  A
C2946      H2951   1.084       .  S
C2947      C2948   1.419       .  A
C2948      N2949   1.429       .  S
N2949      O2953   1.262       .  A
N2949      O2954   1.261       .  A
N2952      O2956   1.262       .  A
N2952      O2955   1.262       .  A
C2957      C2958   1.401       .  A
C2957      C2962   1.402       .  A
C2957      H2964   1.084       .  S
C2958      C2959   1.411       .  A
C2959      C2960   1.400       .  A
C2959      N2966   1.430       .  S
C2960      C2961   1.404       .  A
C2960      H2965   1.084       .  S
C2961      C2962   1.410       .  A
C2962      N2963   1.433       .  S
N2963      O2967   1.261       .  A
N2963      O2968   1.263       .  A
N2966      O2970   1.262       .  A
N2966      O2969   1.262       .  A
C2971      C2976   1.390       .  A
C2971      H2978   1.083       .  S
C2972      C2973   1.408       .  A
C2973      C2974   1.412       .  A
C2973      N2980   1.429       .  S
C2974      C2975   1.409       .  A
C2974      H2979   1.083       .  S
C2976      N2977   1.422       .  S
N2977      O2981   1.262       .  A
N2977      O2982   1.263       .  A
N2980      O2984   1.261       .  A
N2980      O2983   1.262       .  A
C2985      C2990   1.403       .  A
C2985      H2992   1.083       .  S
C2986      C2987   1.420       .  A
C2987      C2988   1.401       .  A
C2987      N2994   1.429       .  S
C2988      C2989   1.403       .  A
C2988      H2993   1.084       .  S
C2990      N2991   1.429       .  S
N2991      O2995   1.262       .  A
N2991      O2996   1.262       .  A
N2994      O2998   1.262       .  A
N2994      O2997   1.262       .  A
C2999      C3000   1.388       .  A
C2999      C3004   1.385       .  A
C2999      H3006   1.125       .  S
C3000      C3001   1.409       .  A
C3001      C3002   1.401       .  A
C3001      N3008   1.433       .  S
C3002      C3003   1.405       .  A
C3002      H3007   1.089       .  S
C3003      C3004   1.403       .  A
C3004      N3005   1.430       .  S
N3005      O3009   1.262       .  A
N3005      O3010   1.262       .  A
N3008      O3012   1.262       .  A
N3008      O3011   1.262       .  A
C3013      H3020   1.085       .  S
C3014      C3015   1.404       .  A
C3015      C3016   1.402       .  A
C3015      N3022   1.428       .  S
C3016      C3017   1.408       .  A
C3016      H3021   1.084       .  S
C3017      C3018   1.407       .  A
C3018      N3019   1.430       .  S
N3019      O3024   1.261       .  A
N3022      O3026   1.262       .  A
N3022      O3025   1.262   1_655  A
C3027      C3028   1.401       .  A
C3027      C3032   1.402       .  A
C3027      H3034   1.084       .  S
C3028      C3029   1.410       .  A
C3029      C3030   1.402       .  A
C3029      N3036   1.432       .  S
C3030      C3031   1.403       .  A
C3030      H3035   1.084       .  S
C3031      C3032   1.411       .  A
C3032      N3033   1.429       .  S
N3033      O3037   1.262       .  A
N3033      O3038   1.262       .  A
N3036      O3040   1.262       .  A
N3036      O3039   1.262       .  A
C3041      C3042   1.407       .  A
C3041      C3046   1.396       .  A
C3041      H3048   1.083       .  S
C3042      C3043   1.415       .  A
C3043      C3044   1.404       .  A
C3043      N3050   1.429       .  S
C3044      C3045   1.408       .  A
C3044      H3049   1.083       .  S
C3045      C3046   1.415       .  A
C3046      N3047   1.430       .  S
N3047      O3051   1.262       .  A
N3047      O3052   1.262       .  A
N3050      O3054   1.262       .  A
N3050      O3053   1.262       .  A
C3055      C3056   1.404       .  A
C3055      C3060   1.396       .  A
C3055      H3062   1.084       .  S
C3056      C3057   1.410       .  A
C3057      C3058   1.404       .  A
C3057      N3064   1.429       .  S
C3058      C3059   1.405       .  A
C3058      H3063   1.084       .  S
C3059      C3060   1.404       .  A
C3060      N3061   1.426       .  S
N3061      O3065   1.261       .  A
N3061      O3066   1.262       .  A
N3064      O3068   1.262       .  A
N3064      O3067   1.262       .  A
C3069      C3074   1.402       .  A
C3069      H3076   1.084       .  S
C3070      C3071   1.415       .  A
C3071      N3078   1.430       .  S
C3072      C3073   1.395   1_455  A
C3072      H3077   1.084       .  S
C3073      C3074   1.411       .  A
C3074      N3075   1.429       .  S
N3075      O3079   1.262       .  A
N3075      O3080   1.262       .  A
N3078      O3082   1.262       .  A
N3078      O3081   1.262       .  A
C3083      C3084   1.405       .  A
C3083      C3088   1.401       .  A
C3083      H3090   1.084       .  S
C3084      C3085   1.409       .  A
C3085      C3086   1.405       .  A
C3086      C3087   1.409       .  A
C3086      H3091   1.083       .  S
C3087      C3088   1.415       .  A
C3088      N3089   1.429       .  S
N3089      O3093   1.262       .  A
N3089      O3094   1.262       .  A
N3092      O3095   1.262   1_455  A
