geometry optimzed in LAMMPS
_audit_creation_date              2020-11-30 
_audit_creation_method            'lammps2cif' 
_symmetry_space_group_name_H-M    'P1' 
_symmetry_Int_Tables_number       1 
_symmetry_cell_setting            triclinic 
loop_ 
_symmetry_equiv_pos_as_xyz 
  x,y,z 
_cell_length_a                    47.98742351336721 
_cell_length_b                    48.049991039003174 
_cell_length_c                    48.02205142963951 
_cell_angle_alpha                 89.5524942811382 
_cell_angle_beta                  90.11139647298167 
_cell_angle_gamma                 89.83304620210538 
loop_ 
_atom_site_label 
_atom_site_type_symbol 
_atom_site_fract_x 
_atom_site_fract_y 
_atom_site_fract_z 
_atom_site_charge 
N1          N  0.55765008  0.67883495  0.00613774    -0.27520
N2          N  0.54344579  0.65604333  0.00054307    -0.35380
C3          C  0.56078614  0.63413492  0.00066568     0.00820
C4          C  0.58725096  0.64344258  0.00682537     0.06840
C5          C  0.58463757  0.67195612  0.01011995    -0.06260
H6          H  0.55443668  0.61281735  0.99737852     0.07510
H7          H  0.60091382  0.68644231  0.01565389     0.08710
Cu8        Cu  0.50088260  0.65500547  0.99525374     0.44170
Cu9        Cu  0.53836298  0.71747749  0.00824391     0.41990
Cu10       Cu  0.46219552  0.71831364  0.99336227     0.43880
N11         N  0.45806180  0.65630246  0.99286011    -0.34910
N12         N  0.44328160  0.67952202  0.99194257    -0.29160
C13         C  0.41601790  0.67295425  0.99036178    -0.05260
C14         C  0.41383783  0.64419110  0.99029857     0.06950
C15         C  0.44085529  0.63441146  0.99200397     0.00750
H16         H  0.39915295  0.68791269  0.98913665     0.08400
H17         H  0.44754173  0.61288048  0.99241684     0.07480
N18         N  0.48701399  0.75335341  0.99811491    -0.36360
N19         N  0.51384492  0.75302023  0.00463037    -0.28540
C20         C  0.52283566  0.77937019  0.00700874    -0.03780
C21         C  0.50078497  0.79715463  0.00139071     0.04830
C22         C  0.47844583  0.77993378  0.99578589     0.02930
H23         H  0.54398214  0.78514628  0.01220751     0.08030
H24         H  0.45744955  0.78625880  0.99037307     0.06870
N25         N  0.70616887  0.52880488  0.00902756    -0.27520
N26         N  0.68290748  0.51458506  0.00569861    -0.35380
C27         C  0.66114412  0.53209112  0.00597303     0.00820
C28         C  0.67097749  0.55872412  0.01000118     0.06840
C29         C  0.69971666  0.55599351  0.01177179    -0.06260
H30         H  0.63960933  0.52581563  0.00383390     0.07510
H31         H  0.71471535  0.57240193  0.01512279     0.08710
Cu32       Cu  0.68113140  0.47199586  0.00192643     0.44170
Cu33       Cu  0.74484791  0.50925811  0.00895007     0.41990
Cu34       Cu  0.74332427  0.43402184  0.99028176     0.43880
N35         N  0.68179929  0.42947936  0.99712693    -0.34910
N36         N  0.70463335  0.41505036  0.99195100    -0.29160
C37         C  0.69774884  0.38811511  0.98849552    -0.05260
C38         C  0.66915774  0.38574197  0.99173237     0.06950
C39         C  0.65983648  0.41232661  0.99732944     0.00750
H40         H  0.71231996  0.37167419  0.98350838     0.08400
H41         H  0.63849615  0.41884996  0.00061752     0.07480
N42         N  0.77898727  0.45778670  0.99508601    -0.36360
N43         N  0.77962669  0.48401291  0.00333101    -0.28540
C44         C  0.80634500  0.49188740  0.00605959    -0.03780
C45         C  0.82332711  0.46977408  0.99879795     0.04830
C46         C  0.80523252  0.44858803  0.99182814     0.02930
H47         H  0.81291826  0.51232912  0.01264899     0.08030
H48         H  0.81070725  0.42789542  0.98495026     0.06870
N49         N  0.44164138  0.26594435  0.00784386    -0.27520
N50         N  0.45636906  0.28897670  0.00525791    -0.35380
C51         C  0.43925128  0.31102862  0.00583734     0.00820
C52         C  0.41232713  0.30159837  0.00931532     0.06840
C53         C  0.41450160  0.27281180  0.01044321    -0.06260
H54         H  0.44597127  0.33245755  0.00419718     0.07510
H55         H  0.39773733  0.25804568  0.01319502     0.08710
Cu56       Cu  0.49907113  0.28982052  0.00198430     0.44170
Cu57       Cu  0.46057306  0.22705439  0.00699540     0.41990
Cu58       Cu  0.53707801  0.22700943  0.99236594     0.43880
N59         N  0.54166066  0.28868310  0.99756773    -0.34910
N60         N  0.55616386  0.26576101  0.99310113    -0.29160
C61         C  0.58316289  0.27263738  0.98949709    -0.05260
C62         C  0.58545821  0.30129355  0.99191520     0.06950
C63         C  0.55878693  0.31063620  0.99721353     0.00750
H64         H  0.59969871  0.25801404  0.98495786     0.08400
H65         H  0.55217444  0.33199798  0.99991596     0.07480
N66         N  0.51223889  0.19179957  0.99631191    -0.36360
N67         N  0.48529968  0.19182604  0.00232641    -0.28540
C68         C  0.47646114  0.16536969  0.00442878    -0.03780
C69         C  0.49875646  0.14787515  0.99934291     0.04830
C70         C  0.52106415  0.16531288  0.99422041     0.02930
H71         H  0.45533175  0.15931619  0.00938216     0.08030
H72         H  0.54225003  0.15919711  0.98952411     0.06870
N73         N  0.29446146  0.53075040  0.99314241    -0.27520
N74         N  0.31759733  0.51586223  0.99457055    -0.35380
C75         C  0.33961660  0.53295757  0.99399055     0.00820
C76         C  0.32995099  0.55998825  0.99194754     0.06840
C77         C  0.30116708  0.55793739  0.99151275    -0.06260
H78         H  0.36114197  0.52618200  0.99450885     0.07510
H79         H  0.28629331  0.57482130  0.98965168     0.08710
Cu80       Cu  0.31833034  0.47301778  0.99648203     0.44170
Cu81       Cu  0.25558789  0.51209647  0.99338160     0.41990
Cu82       Cu  0.25469309  0.43580855  0.00708587     0.43880
N83         N  0.31645369  0.43035186  0.00052906    -0.34910
N84         N  0.29331926  0.41624749  0.00522024    -0.29160
C85         C  0.29983495  0.38910919  0.00867485    -0.05260
C86         C  0.32845821  0.38628812  0.00598508     0.06950
C87         C  0.33819854  0.41279538  0.00069409     0.00750
H88         H  0.28501899  0.37285693  0.01351419     0.08400
H89         H  0.35969942  0.41901509  0.99809225     0.07480
N90         N  0.21961926  0.46114563  0.00371601    -0.36360
N91         N  0.22002348  0.48800189  0.99735612    -0.28540
C92         C  0.19369626  0.49729247  0.99490829    -0.03780
C93         C  0.17578254  0.47545744  0.00044144     0.04830
C94         C  0.19296901  0.45288565  0.00602023     0.02930
H95         H  0.18803923  0.51845353  0.98942833     0.08030
H96         H  0.18658023  0.43187921  0.01110401     0.06870
N97         N  0.00683883  0.53078787  0.70561628    -0.27520
N98         N  0.00262159  0.51689604  0.68234966    -0.35380
C99         C  0.00082559  0.53490263  0.66092421     0.00820
C100        C  0.00407244  0.56144814  0.67112771     0.06840
C101        C  0.00793212  0.55821312  0.69955528    -0.06260
H102        H  0.99745518  0.52909231  0.63945676     0.07510
H103        H  0.01104480  0.57450708  0.71465815     0.08710
Cu104      Cu  0.99922750  0.47416480  0.68054706     0.44170
Cu105      Cu  0.00924704  0.51088382  0.74413358     0.41990
Cu106      Cu  0.99082345  0.43605016  0.74414984     0.43880
N107        N  0.99589943  0.43139621  0.68222969    -0.34910
N108        N  0.99258049  0.41694074  0.70550195    -0.29160
C109        C  0.99120310  0.38966186  0.69923714    -0.05260
C110        C  0.99370478  0.38711388  0.67062818     0.06950
C111        C  0.99667199  0.41393130  0.66059785     0.00750
H112        H  0.98842342  0.37302853  0.71428256     0.08400
H113        H  0.99909440  0.42029863  0.63907476     0.07480
N114        N  0.99544914  0.46022742  0.77958233    -0.36360
N115        N  0.00425863  0.48629926  0.77959014    -0.28540
C116        C  0.00741184  0.49459795  0.80608104    -0.03780
C117        C  0.99961270  0.47302080  0.82370171     0.04830
C118        C  0.99198672  0.45164317  0.80606271     0.02930
H119        H  0.01471507  0.51498222  0.81204813     0.08030
H120        H  0.98462605  0.43118967  0.81201039     0.06870
N121        N  0.00340091  0.68149255  0.55757487    -0.27520
N122        N  0.00951063  0.65867058  0.54363851    -0.35380
C123        C  0.01139091  0.63710957  0.56146964     0.00820
C124        C  0.00624129  0.64676789  0.58792675     0.06840
C125        C  0.00116784  0.67500257  0.58485181    -0.06260
H126        H  0.01549343  0.61581484  0.55552153     0.07510
H127        H  0.99589294  0.68958403  0.60107755     0.08710
Cu128      Cu  0.01248373  0.65707413  0.50082007     0.44170
Cu129      Cu  0.99806442  0.71970477  0.53768465     0.41990
Cu130      Cu  0.99622255  0.71812095  0.46064212     0.43880
N131        N  0.00736003  0.65678709  0.45815243    -0.34910
N132        N  0.00025754  0.67884525  0.44311988    -0.29160
C133        C  0.99584178  0.67084917  0.41661683    -0.05260
C134        C  0.00045960  0.64238741  0.41510447     0.06950
C135        C  0.00787442  0.63430765  0.44178213     0.00750
H136        H  0.98906227  0.68454273  0.39992553     0.08400
H137        H  0.01236708  0.61337319  0.44899551     0.07480
N138        N  0.99554923  0.75418507  0.48439596    -0.36360
N139        N  0.99610043  0.75467976  0.51197120    -0.28540
C140        C  0.99633548  0.78130904  0.52038702    -0.03780
C141        C  0.99596823  0.79836182  0.49708719     0.04830
C142        C  0.99546144  0.78052476  0.47463633     0.02930
H143        H  0.99720765  0.78778944  0.54189915     0.08030
H144        H  0.99534692  0.78626637  0.45280410     0.06870
N145        N  0.99898405  0.52920094  0.29521698    -0.27520
N146        N  0.00621577  0.51448106  0.31744835    -0.35380
C147        C  0.00697136  0.53115924  0.33969056     0.00820
C148        C  0.99958746  0.55773149  0.33129643     0.06840
C149        C  0.99472946  0.55583200  0.30287838    -0.06260
H150        H  0.01164954  0.52423708  0.36068930     0.07510
H151        H  0.98793589  0.57235918  0.28899575     0.08710
Cu152      Cu  0.01131407  0.47185264  0.31780678     0.44170
Cu153      Cu  0.99466776  0.51104750  0.25619671     0.41990
Cu154      Cu  0.99757846  0.43397400  0.25575468     0.43880
N155        N  0.00844619  0.42905210  0.31695316    -0.34910
N156        N  0.00290273  0.41470499  0.29425441    -0.29160
C157        C  0.00027556  0.38760297  0.30122365    -0.05260
C158        C  0.00432071  0.38507325  0.32968376     0.06950
C159        C  0.00941153  0.41168489  0.33893982     0.00750
H160        H  0.99491962  0.37120271  0.28688114     0.08400
H161        H  0.01258587  0.41809026  0.36026250     0.07480
N162        N  0.99455323  0.45908256  0.22045029    -0.36360
N163        N  0.99370799  0.48665022  0.22049929    -0.28540
C164        C  0.99323934  0.49594086  0.19397870    -0.03780
C165        C  0.99371490  0.47318509  0.17654413     0.04830
C166        C  0.99452505  0.45020205  0.19395823     0.02930
H167        H  0.99307703  0.51765402  0.18783708     0.08030
H168        H  0.99570906  0.42861246  0.18782131     0.06870
N169        N  0.00080444  0.26624836  0.55954067    -0.27520
N170        N  0.00470842  0.28915383  0.54466129    -0.35380
C171        C  0.00450815  0.31122696  0.56157160     0.00820
C172        C  0.00022342  0.30189487  0.58845886     0.06840
C173        C  0.99798807  0.27322792  0.58654854    -0.06260
H174        H  0.00626732  0.33263961  0.55466097     0.07510
H175        H  0.99366136  0.25870747  0.60330933     0.08710
Cu176      Cu  0.00717202  0.29020440  0.50180953     0.44170
Cu177      Cu  0.99788498  0.22733097  0.54109546     0.41990
Cu178      Cu  0.99839918  0.22734666  0.46380778     0.43880
N179        N  0.00485913  0.28909621  0.45895807    -0.34910
N180        N  0.00140238  0.26606160  0.44452339    -0.29160
C181        C  0.99956627  0.27274272  0.41725327    -0.05260
C182        C  0.00189432  0.30137358  0.41470786     0.06950
C183        C  0.00523414  0.31100458  0.44149041     0.00750
H184        H  0.99623690  0.25800389  0.40066733     0.08400
H185        H  0.00727501  0.33245526  0.44786328     0.07480
N186        N  0.99668933  0.19194542  0.48889282    -0.36360
N187        N  0.99649302  0.19187928  0.51649205    -0.28540
C188        C  0.99620098  0.16535634  0.52571128    -0.03780
C189        C  0.99619433  0.14806664  0.50288274     0.04830
C190        C  0.99652963  0.16549962  0.47992003     0.02930
H191        H  0.99648761  0.15913038  0.54741118     0.08030
H192        H  0.99712718  0.15941800  0.45828290     0.06870
N193        N  0.55720281  0.96875199  0.70732799    -0.27520
N194        N  0.54264487  0.95945882  0.68596293    -0.35380
C195        C  0.55918919  0.95811660  0.66352456     0.00820
C196        C  0.58543965  0.96717070  0.67097032     0.06840
C197        C  0.58353693  0.97369232  0.69895595    -0.06260
H198        H  0.55225733  0.95232840  0.64291360     0.07510
H199        H  0.59972107  0.98240865  0.71192742     0.08710
Cu200      Cu  0.49999663  0.95381126  0.68650186     0.44170
Cu201      Cu  0.53918023  0.97591352  0.74589400     0.41990
Cu202      Cu  0.46249060  0.97836394  0.74577915     0.43880
N203        N  0.45744728  0.96042300  0.68641159    -0.34910
N204        N  0.44355341  0.97069401  0.70774247    -0.29160
C205        C  0.41726078  0.97646242  0.69960145    -0.05260
C206        C  0.41467356  0.96946102  0.67180176     0.06950
C207        C  0.44048896  0.95927037  0.66420445     0.00750
H208        H  0.40168358  0.98631908  0.71249232     0.08400
H209        H  0.44696944  0.95318011  0.64355282     0.07480
N210        N  0.48715741  0.98085091  0.78121756    -0.36360
N211        N  0.51472362  0.97962651  0.78132510    -0.28540
C212        C  0.52377784  0.97948731  0.80784990    -0.03780
C213        C  0.50086546  0.98070275  0.82521367     0.04830
C214        C  0.47802183  0.98165233  0.80764868     0.02930
H215        H  0.54540282  0.97769092  0.81405664     0.08030
H216        H  0.45630158  0.98197796  0.81365323     0.06870
N217        N  0.70504835  0.96983899  0.55675229    -0.27520
N218        N  0.68247404  0.96538993  0.54170836    -0.35380
C219        C  0.66009552  0.96526115  0.55835859     0.00820
C220        C  0.66874305  0.97044843  0.58528887     0.06840
C221        C  0.69749363  0.97319355  0.58355520    -0.06260
H222        H  0.63889842  0.96241805  0.55121454     0.07510
H223        H  0.71175314  0.97788063  0.60034298     0.08710
Cu224      Cu  0.68242447  0.96347072  0.49890340     0.44170
Cu225      Cu  0.74429707  0.97152237  0.53858026     0.41990
Cu226      Cu  0.74537422  0.97792836  0.46145601     0.43880
N227        N  0.68405353  0.96759728  0.45622599    -0.34910
N228        N  0.70699076  0.97277226  0.44196022    -0.29160
C229        C  0.70047170  0.97433683  0.41465784    -0.05260
C230        C  0.67198482  0.97018913  0.41185920     0.06950
C231        C  0.66237880  0.96614486  0.43867138     0.00750
H232        H  0.71528722  0.97836013  0.39817106     0.08400
H233        H  0.64102603  0.96274953  0.44502923     0.07480
N234        N  0.78048111  0.97765532  0.48699424    -0.36360
N235        N  0.78008362  0.97343404  0.51426063    -0.28540
C236        C  0.80644633  0.97129370  0.52356974    -0.03780
C237        C  0.82443934  0.97499597  0.50132270     0.04830
C238        C  0.80713652  0.97916741  0.47850671     0.02930
H239        H  0.81206612  0.96707843  0.54502225     0.08030
H240        H  0.81342793  0.98260370  0.45713845     0.06870
N241        N  0.55814847  0.98379759  0.29277390    -0.27520
N242        N  0.54354638  0.98697551  0.31583601    -0.35380
C243        C  0.56083143  0.98612759  0.33782618     0.00820
C244        C  0.58762479  0.98224177  0.32817480     0.06840
C245        C  0.58528102  0.98085355  0.29949671    -0.06260
H246        H  0.55423300  0.98688173  0.35934217     0.07510
H247        H  0.60179962  0.97669202  0.28479154     0.08710
Cu248      Cu  0.50054655  0.98796295  0.31691498     0.44170
Cu249      Cu  0.53927363  0.98036898  0.25408991     0.41990
Cu250      Cu  0.46382945  0.96591910  0.25581815     0.43880
N251        N  0.45822694  0.98038242  0.31612521    -0.34910
N252        N  0.44460874  0.97122171  0.29409212    -0.29160
C253        C  0.41809080  0.96566027  0.30142339    -0.05260
C254        C  0.41510089  0.97163840  0.32942114     0.06950
C255        C  0.44088964  0.98099301  0.33798180     0.00750
H256        H  0.40250461  0.95699783  0.28770781     0.08400
H257        H  0.44694987  0.98659783  0.35891568     0.07480
N258        N  0.48781402  0.96747814  0.21991223    -0.36360
N259        N  0.51460282  0.97392123  0.21922608    -0.28540
C260        C  0.52292875  0.97538162  0.19255018    -0.03780
C261        C  0.50043306  0.96931543  0.17562413     0.04830
C262        C  0.47856302  0.96428332  0.19369039     0.02930
H263        H  0.54378012  0.98080016  0.18595393     0.08030
H264        H  0.45730836  0.95922958  0.18817582     0.06870
N265        N  0.29538799  0.96467133  0.44287382    -0.27520
N266        N  0.31814746  0.96967526  0.45742695    -0.35380
C267        C  0.34018172  0.97029755  0.44038664     0.00820
C268        C  0.33112151  0.96495099  0.41366424     0.06840
C269        C  0.30247193  0.96156530  0.41589293    -0.06260
H270        H  0.36141703  0.97385141  0.44707799     0.07510
H271        H  0.28798389  0.95686838  0.39930343     0.08710
Cu272      Cu  0.31874133  0.97360944  0.49992776     0.44170
Cu273      Cu  0.25668036  0.96325621  0.46218044     0.41990
Cu274      Cu  0.25588186  0.97981109  0.53856702     0.43880
N275        N  0.31798887  0.97688582  0.54248695    -0.34910
N276        N  0.29516327  0.98052878  0.55732056    -0.29160
C277        C  0.30247938  0.98308899  0.58434582    -0.05260
C278        C  0.33131861  0.98061458  0.58635050     0.06950
C279        C  0.34020759  0.97643782  0.55937635     0.00750
H280        H  0.28794430  0.98645324  0.60118333     0.08400
H281        H  0.36142842  0.97334442  0.55244191     0.07480
N282        N  0.22076081  0.97389959  0.51348958    -0.36360
N283        N  0.22123871  0.96719347  0.48676287    -0.28540
C284        C  0.19491503  0.96451350  0.47755606    -0.03780
C285        C  0.17692903  0.97000129  0.49928851     0.04830
C286        C  0.19402417  0.97583699  0.52175410     0.02930
H287        H  0.18927225  0.95924295  0.45642127     0.08030
H288        H  0.18749321  0.98128083  0.54257038     0.06870
O289        O  0.00089583  0.01423933  0.52375704    -0.73180
O290        O  0.00188494  0.93063334  0.52125932    -0.74160
O291        O  0.04336998  0.97281522  0.52092581    -0.62780
O292        O  0.95981853  0.97150987  0.52402658    -0.71190
O293        O  0.95815952  0.97510163  0.47809924    -0.70740
O294        O  0.04191742  0.97273235  0.47484869    -0.61990
O295        O  0.99909766  0.93232978  0.47509630    -0.74500
O296        O  0.00078772  0.01591690  0.47751549    -0.73280
Cu297      Cu  0.00161709  0.97230141  0.52408912     1.04560
Cu298      Cu  0.99996463  0.97413638  0.47477038     1.04330
C299        C  0.00060028  0.02819859  0.50100694     0.93020
C300        C  0.00016896  0.91837442  0.49781667     0.92160
C301        C  0.05594403  0.97225236  0.49749564     0.84310
C302        C  0.94567236  0.97306427  0.50152578     0.90580
O303        O  0.47752985  0.93072654  0.99831843    -0.73180
O304        O  0.47633922  0.01399737  0.00135533    -0.74160
O305        O  0.47727880  0.97415985  0.95814868    -0.62780
O306        O  0.47661571  0.97032013  0.04155307    -0.71190
O307        O  0.52269400  0.97318398  0.04205564    -0.70740
O308        O  0.52355063  0.97300493  0.95865834    -0.61990
O309        O  0.52251331  0.01458945  0.99978186    -0.74500
O310        O  0.52362438  0.93118396  0.00108616    -0.73280
Cu311      Cu  0.47532223  0.97228655  0.99981957     1.04560
Cu312      Cu  0.52471514  0.97297678  0.00039923     1.04330
C313        C  0.50073443  0.91772838  0.99981304     0.93020
C314        C  0.49923041  0.02748834  0.00060959     0.92160
C315        C  0.50054316  0.97410485  0.94527877     0.84310
C316        C  0.49955820  0.97138966  0.05503066     0.90580
O317        O  0.00120598  0.44970160  0.95928119    -0.73180
O318        O  0.99921485  0.44941459  0.04321631    -0.74160
O319        O  0.95885879  0.44738517  0.99952249    -0.62780
O320        O  0.04239982  0.45179188  0.00229872    -0.71190
O321        O  0.04030840  0.49769897  0.00015193    -0.70740
O322        O  0.95676214  0.49322691  0.00117645    -0.61990
O323        O  0.99890359  0.49560951  0.04289087    -0.74500
O324        O  0.99857232  0.49537466  0.95897739    -0.73280
Cu325      Cu  0.00058202  0.44798534  0.00117915     1.04560
Cu326      Cu  0.99853675  0.49705753  0.00086113     1.04330
C327        C  0.99985405  0.47255220  0.94559399     0.93020
C328        C  0.99870676  0.47250553  0.05625455     0.92160
C329        C  0.94444509  0.46972677  0.99968447     0.84310
C330        C  0.05469817  0.47533443  0.00080024     0.90580
C331        C  0.13068615  0.95287404  0.51656074    -0.02080
C332        C  0.14602141  0.97016166  0.49838645     0.07600
C333        C  0.13177736  0.98717307  0.47891056    -0.02190
C334        C  0.10242411  0.98702065  0.47767558    -0.02200
C335        C  0.08693557  0.97076394  0.49685161     0.07730
C336        C  0.10132708  0.95320355  0.51588673    -0.02390
Br337      Br  0.08115033  0.92772152  0.53978800    -0.00940
Br338      Br  0.14985300  0.92750037  0.54151575    -0.01010
Br339      Br  0.08399832  0.00961830  0.44966954    -0.00970
Br340      Br  0.15233962  0.01223012  0.45494293    -0.00950
C341        C  0.36623139  0.98178253  0.34480168    -0.02080
C342        C  0.39099926  0.96617696  0.34772211     0.07600
C343        C  0.39380940  0.94701586  0.36990888    -0.02190
C344        C  0.37294753  0.94503891  0.39028118    -0.02200
C345        C  0.34935750  0.96263882  0.38893861     0.07730
C346        C  0.34546312  0.98018593  0.36550286    -0.02390
Br347      Br  0.31301168  0.00384685  0.36271824    -0.00940
Br348      Br  0.36169660  0.00689947  0.31356536    -0.01010
Br349      Br  0.37675364  0.91785325  0.41994490    -0.00970
Br350      Br  0.42640140  0.92340861  0.37252211    -0.00950
C351        C  0.48025589  0.98693494  0.10094211    -0.02080
C352        C  0.49939771  0.97050294  0.08587687     0.07600
C353        C  0.51855308  0.95333902  0.10044730    -0.02190
C354        C  0.51877991  0.95288644  0.12975861    -0.02200
C355        C  0.49976029  0.96941704  0.14478614     0.07730
C356        C  0.48041576  0.98635196  0.13026147    -0.02390
Br357      Br  0.45509158  0.01025963  0.15030834    -0.00940
Br358      Br  0.45475454  0.01174198  0.08171122    -0.01010
Br359      Br  0.54442794  0.92842064  0.14917984    -0.00970
Br360      Br  0.54366906  0.92907628  0.08051194    -0.00950
C361        C  0.63287388  0.99778299  0.34855122    -0.02080
C362        C  0.61246282  0.97703567  0.34559631     0.07600
C363        C  0.61429896  0.95234104  0.36146187    -0.02190
C364        C  0.63539095  0.94919373  0.38159029    -0.02200
C365        C  0.65432596  0.97108348  0.38650873     0.07730
C366        C  0.65366464  0.99500227  0.36917423    -0.02390
Br367      Br  0.67932330  0.02524195  0.37506131    -0.00940
Br368      Br  0.63105405  0.03089010  0.32561136    -0.01010
Br369      Br  0.63834211  0.91463612  0.40225386    -0.00970
Br370      Br  0.58753643  0.92294356  0.35589281    -0.00950
C371        C  0.87053020  0.98868244  0.52223593    -0.02080
C372        C  0.85545679  0.97393102  0.50180773     0.07600
C373        C  0.87016865  0.95771793  0.48223236    -0.02190
C374        C  0.89954453  0.95746107  0.48216224    -0.02200
C375        C  0.91464942  0.97244493  0.50245302     0.07730
C376        C  0.89983615  0.98695458  0.52332797    -0.02390
Br377      Br  0.91904638  0.00486054  0.55377647    -0.00940
Br378      Br  0.85152576  0.01326836  0.54768968    -0.01010
Br379      Br  0.91875181  0.93455637  0.45527514    -0.00970
Br380      Br  0.85042679  0.93409432  0.45646138    -0.00950
C381        C  0.63394776  0.95614634  0.65502390    -0.02080
C382        C  0.60912614  0.97160480  0.65180065     0.07600
C383        C  0.60598584  0.98974178  0.62878993    -0.02190
C384        C  0.62660338  0.99086159  0.60806712    -0.02200
C385        C  0.65024984  0.97332739  0.60983966     0.07730
C386        C  0.65440962  0.95679570  0.63397721    -0.02390
Br387      Br  0.68686154  0.93321061  0.63749685    -0.00940
Br388      Br  0.63905703  0.93251783  0.68732327    -0.01010
Br389      Br  0.62255778  0.01714763  0.57762516    -0.00970
Br390      Br  0.57344799  0.01338504  0.62569083    -0.00950
C391        C  0.39498084  0.99467258  0.63060760    -0.02080
C392        C  0.39122319  0.97561240  0.65270967     0.07600
C393        C  0.36583334  0.96118257  0.65528290    -0.02190
C394        C  0.34524567  0.96383277  0.63439710    -0.02200
C395        C  0.34979649  0.98154350  0.61118622     0.07730
C396        C  0.37417833  0.99798911  0.61020743    -0.02390
Br397      Br  0.37910714  0.02573377  0.58125946    -0.00940
Br398      Br  0.42872872  0.01644045  0.62822353    -0.01010
Br399      Br  0.31213683  0.94126343  0.63678752    -0.00970
Br400      Br  0.36009746  0.93630087  0.68647871    -0.00950
C401        C  0.48728597  0.95666253  0.86963050    -0.02080
C402        C  0.50078511  0.97897844  0.85596500     0.07600
C403        C  0.51441559  0.99951993  0.87175070    -0.02190
C404        C  0.51444429  0.99783658  0.90101893    -0.02200
C405        C  0.50082785  0.97562112  0.91462458     0.07730
C406        C  0.48726127  0.95504552  0.89890118    -0.02390
Br407      Br  0.46978016  0.92385948  0.91746676    -0.00940
Br408      Br  0.47005082  0.92737033  0.84840750    -0.01010
Br409      Br  0.53198126  0.02678474  0.92250291    -0.00970
Br410      Br  0.53197135  0.03076001  0.85341117    -0.00950
C411        C  0.02328464  0.10367284  0.50217469    -0.02080
C412        C  0.99734807  0.11742981  0.50291538     0.07600
C413        C  0.97252416  0.10191955  0.50320029    -0.02190
C414        C  0.97362543  0.07268955  0.50197259    -0.02200
C415        C  0.99955940  0.05885282  0.50184197     0.07730
C416        C  0.02438886  0.07439450  0.50227951    -0.02390
Br417      Br  0.05985680  0.05558196  0.50328288    -0.00940
Br418      Br  0.05723622  0.12503512  0.50074152    -0.01010
Br419      Br  0.93961244  0.05168065  0.49968806    -0.00970
Br420      Br  0.93706297  0.12080965  0.50527611    -0.00950
C421        C  0.97803426  0.35817156  0.36545123    -0.02080
C422        C  0.00117058  0.36020358  0.34755377     0.07600
C423        C  0.02273949  0.34031393  0.34927081    -0.02190
C424        C  0.02215111  0.31963934  0.37023079    -0.02200
C425        C  0.99996788  0.31890830  0.38942046     0.07730
C426        C  0.97741705  0.33753732  0.38633498    -0.02390
Br427      Br  0.94584705  0.33505353  0.41108051    -0.00940
Br428      Br  0.94745777  0.38413935  0.36172454    -0.01010
Br429      Br  0.05277853  0.29380742  0.37404999    -0.00970
Br430      Br  0.05404373  0.34274590  0.32425559    -0.00950
C431        C  0.02094268  0.48056900  0.10279183    -0.02080
C432        C  0.99752944  0.47252895  0.08706905     0.07600
C433        C  0.97282857  0.46477716  0.10091089    -0.02190
C434        C  0.97169039  0.46460919  0.13021097    -0.02200
C435        C  0.99492451  0.47326416  0.14582317     0.07730
C436        C  0.01950306  0.48145255  0.13206060    -0.02390
Br437      Br  0.05152892  0.49303195  0.15336955    -0.00940
Br438      Br  0.05546798  0.48892392  0.08439188    -0.01010
Br439      Br  0.93805215  0.45316136  0.14900832    -0.00970
Br440      Br  0.94008695  0.45564936  0.07980051    -0.00950
C441        C  0.01255995  0.60606600  0.34616951    -0.02080
C442        C  0.99614793  0.58199227  0.34984915     0.07600
C443        C  0.97826750  0.57992790  0.37306679    -0.02190
C444        C  0.97850956  0.60062115  0.39359650    -0.02200
C445        C  0.99664212  0.62357204  0.39110715     0.07730
C446        C  0.01281191  0.62683576  0.36678351    -0.02390
Br447      Br  0.03701834  0.65858450  0.36258988    -0.00940
Br448      Br  0.03640229  0.60969489  0.31404554    -0.01010
Br449      Br  0.95355262  0.59757688  0.42501439    -0.00970
Br450      Br  0.95300981  0.54885398  0.37671177    -0.00950
C451        C  0.97572864  0.87379578  0.50829267    -0.02080
C452        C  0.99896382  0.88775627  0.49705864     0.07600
C453        C  0.02097373  0.87242625  0.48524752    -0.02190
C454        C  0.01996921  0.84313466  0.48509262    -0.02200
C455        C  0.99678782  0.82911728  0.49650921     0.07730
C456        C  0.97459078  0.84454273  0.50793650    -0.02390
Br457      Br  0.94205665  0.82568212  0.52213597    -0.00940
Br458      Br  0.94496454  0.89485017  0.52330244    -0.01010
Br459      Br  0.05106438  0.82227545  0.47055854    -0.00970
Br460      Br  0.05302999  0.89158991  0.47035875    -0.00950
C461        C  0.97932859  0.61776277  0.62163103    -0.02080
C462        C  0.00491226  0.62942072  0.61331769     0.07600
C463        C  0.02975333  0.62129892  0.62679653    -0.02190
C464        C  0.02926752  0.60026609  0.64735113    -0.02200
C465        C  0.00392359  0.58724570  0.65429569     0.07730
C466        C  0.97884028  0.59664486  0.64208694    -0.02390
Br467      Br  0.94393947  0.57986532  0.65278070    -0.00940
Br468      Br  0.94521619  0.62950695  0.60369496    -0.01010
Br469      Br  0.06357076  0.58777321  0.66437533    -0.00970
Br470      Br  0.06459300  0.63807347  0.61596169    -0.00950
C471        C  0.97118707  0.35884881  0.63369141    -0.02080
C472        C  0.99270959  0.36177367  0.65344661     0.07600
C473        C  0.01477748  0.34232036  0.65424496    -0.02190
C474        C  0.01636265  0.32130637  0.63396537    -0.02200
C475        C  0.99591115  0.31979803  0.61292998     0.07730
C476        C  0.97278301  0.33792293  0.61348660    -0.02390
Br477      Br  0.94339015  0.33432964  0.58624054    -0.00940
Br478      Br  0.93958327  0.38381224  0.63410161    -0.01010
Br479      Br  0.04764217  0.29601265  0.63365262    -0.00970
Br480      Br  0.04401499  0.34583068  0.68159991    -0.00950
C481        C  0.01144719  0.45037070  0.86966199    -0.02080
C482        C  0.99955450  0.47283099  0.85471375     0.07600
C483        C  0.98760788  0.49511506  0.86948489    -0.02190
C484        C  0.98878342  0.49570405  0.89883589    -0.02200
C485        C  0.99968994  0.47260070  0.91420189     0.07730
C486        C  0.01032585  0.44952525  0.89901398    -0.02390
Br487      Br  0.02389055  0.41601596  0.91715401    -0.00940
Br488      Br  0.03132413  0.42131992  0.85014462    -0.01010
Br489      Br  0.97456490  0.52875104  0.91676529    -0.00970
Br490      Br  0.96758598  0.52425195  0.84970479    -0.00950
C491        C  0.13007220  0.45636115  0.98407600    -0.02080
C492        C  0.14488641  0.47604075  0.99986797     0.07600
C493        C  0.13009645  0.49667403  0.01454197    -0.02190
C494        C  0.10077907  0.49777871  0.01324025    -0.02200
C495        C  0.08574460  0.47650811  0.99952883     0.07730
C496        C  0.10074060  0.45615244  0.98443060    -0.02390
Br497      Br  0.08162565  0.42902220  0.96200430    -0.00940
Br498      Br  0.14976572  0.43069714  0.96021984    -0.01010
Br499      Br  0.08212241  0.52918133  0.02997128    -0.00970
Br500      Br  0.14968247  0.52246665  0.03826071    -0.00950
C501        C  0.38717501  0.34068728  0.03211291    -0.02080
C502        C  0.38735473  0.31950497  0.01193450     0.07600
C503        C  0.36533127  0.31787832  0.99247321    -0.02190
C504        C  0.34462746  0.33877912  0.99170960    -0.02200
C505        C  0.34605205  0.36133063  0.01027443     0.07730
C506        C  0.36666425  0.36156678  0.03121882    -0.02390
Br507      Br  0.36697306  0.39069071  0.05874891    -0.00940
Br508      Br  0.41510117  0.34123952  0.06116103    -0.01010
Br509      Br  0.31571909  0.33769077  0.96376436    -0.00970
Br510      Br  0.36471648  0.28856097  0.96524966    -0.00950
C511        C  0.48089193  0.07299369  0.98224365    -0.02080
C512        C  0.49883331  0.05827760  0.00053314     0.07600
C513        C  0.51667766  0.07312168  0.01848911    -0.02190
C514        C  0.51672998  0.10241102  0.01800203    -0.02200
C515        C  0.49879140  0.11708817  0.99974261     0.07730
C516        C  0.48080712  0.10228911  0.98194473    -0.02390
Br517      Br  0.45698479  0.12202390  0.95595182    -0.00940
Br518      Br  0.45746800  0.05326095  0.95625503    -0.01010
Br519      Br  0.54049628  0.12230375  0.04351038    -0.00970
Br520      Br  0.54006714  0.05354838  0.04503667    -0.00950
C521        C  0.60908457  0.34109956  0.96839575    -0.02080
C522        C  0.61015159  0.31926428  0.98817639     0.07600
C523        C  0.63322915  0.31698928  0.00632445    -0.02190
C524        C  0.65382371  0.33788120  0.00633222    -0.02200
C525        C  0.65128518  0.36102156  0.98822133     0.07730
C526        C  0.62954072  0.36191802  0.96845200    -0.02390
Br527      Br  0.62764959  0.39177689  0.94129968    -0.00940
Br528      Br  0.57951522  0.34261471  0.94103493    -0.01010
Br529      Br  0.68412092  0.33589502  0.03275868    -0.00970
Br530      Br  0.63552828  0.28664300  0.03278544    -0.00950
C531        C  0.86901989  0.48996367  0.98378561    -0.02080
C532        C  0.85420627  0.46907013  0.99817158     0.07600
C533        C  0.86895850  0.44726053  0.01146965    -0.02190
C534        C  0.89828205  0.44625079  0.01028504    -0.02200
C535        C  0.91336969  0.46858138  0.99803946     0.07730
C536        C  0.89834755  0.49011307  0.98421121    -0.02390
Br537      Br  0.91727856  0.51911989  0.96364884    -0.00940
Br538      Br  0.84927097  0.51760612  0.96176350    -0.01010
Br539      Br  0.91675480  0.41353416  0.02525563    -0.00970
Br540      Br  0.84927788  0.41956414  0.03322214    -0.00950
C541        C  0.61114914  0.60460071  0.03186407    -0.02080
C542        C  0.61196623  0.62554783  0.01118678     0.07600
C543        C  0.63487574  0.62708556  0.99289932    -0.02190
C544        C  0.65557493  0.60618158  0.99363322    -0.02200
C545        C  0.65339293  0.58387353  0.01281213     0.07730
C546        C  0.63186522  0.58393064  0.03277570    -0.02390
Br547      Br  0.63060782  0.55558922  0.06152222    -0.00640
Br548      Br  0.58139435  0.60400187  0.05892085    -0.01010
Br549      Br  0.68539447  0.60695425  0.96675329    -0.00970
Br550      Br  0.63670657  0.65645799  0.96534199    -0.00950
C551        C  0.34817175  0.60524046  0.01013829    -0.02080
C552        C  0.34749462  0.58502513  0.98900790     0.07600
C553        C  0.36595326  0.58707933  0.96630609    -0.02190
C554        C  0.38648142  0.60783257  0.96584856    -0.02200
C555        C  0.38870351  0.62666081  0.98810124     0.07730
C556        C  0.36880621  0.62608074  0.00969437    -0.02390
Br557      Br  0.37119029  0.65223360  0.03988212    -0.00940
Br558      Br  0.32240515  0.60303996  0.04086791    -0.01010
Br559      Br  0.41175954  0.61031332  0.93467585    -0.00970
Br560      Br  0.36325648  0.56127286  0.93577555    -0.00950
C561        C  0.48194010  0.87219093  0.01737465    -0.02080
C562        C  0.50099353  0.88688172  0.00035007     0.07600
C563        C  0.52022569  0.87193397  0.98392495    -0.02190
C564        C  0.52027656  0.84262264  0.98439749    -0.02200
C565        C  0.50103348  0.82798756  0.00118241     0.07730
C566        C  0.48191317  0.84289679  0.01769915    -0.02390
Br567      Br  0.45650119  0.82335652  0.04211393    -0.00940
Br568      Br  0.45675566  0.89190571  0.04174418    -0.01010
Br569      Br  0.54585687  0.82271519  0.96066955    -0.00970
Br570      Br  0.54563822  0.89132378  0.95937505    -0.00950
loop_ 
_geom_bond_atom_site_label_1 
_geom_bond_atom_site_label_2 
_geom_bond_distance 
_geom_bond_site_symmetry_2 
_ccdc_geom_bond_type 
N1            N2   1.321       .  A
N1            C5   1.349       .  A
N1           Cu9   2.076       .  S
N2            C3   1.340       .  A
N2           Cu8   2.059   1_554  S
C3            C4   1.380       .  A
C3            H6   1.082   1_554  S
C4            C5   1.386       .  A
C4          C542   1.477       .  S
C5            H7   1.082       .  S
Cu8          N11   2.059       .  S
Cu9          N19   2.077       .  S
Cu10         N12   2.077       .  S
Cu10         N18   2.079       .  S
N11          N12   1.321       .  A
N11          C15   1.340       .  A
N12          C13   1.349       .  A
C13          C14   1.386       .  A
C13          H16   1.082       .  S
C14          C15   1.380       .  A
C14         C555   1.477       .  S
C15          H17   1.082       .  S
N18          N19   1.324   1_556  A
N18          C22   1.344       .  A
N19          C20   1.344       .  A
C20          C21   1.383       .  A
C20          H23   1.082       .  S
C21          C22   1.383   1_554  A
C21         C565   1.482       .  S
C22          H24   1.082       .  S
N25          N26   1.321       .  A
N25          C29   1.349       .  A
N25         Cu33   2.078       .  S
N26          C27   1.339       .  A
N26         Cu32   2.058       .  S
C27          C28   1.380       .  A
C27          H30   1.082       .  S
C28          C29   1.387       .  A
C28         C545   1.479       .  S
C29          H31   1.082       .  S
Cu32         N35   2.058   1_554  S
Cu33         N43   2.080       .  S
Cu34         N36   2.072       .  S
Cu34         N42   2.074       .  S
N35          N36   1.320       .  A
N35          C39   1.340       .  A
N36          C37   1.348       .  A
C37          C38   1.386       .  A
C37          H40   1.082       .  S
C38          C39   1.381       .  A
C38         C525   1.478       .  S
C39          H41   1.082   1_556  S
N42          N43   1.324   1_556  A
N42          C46   1.343       .  A
N43          C44   1.344       .  A
C44          C45   1.384   1_554  A
C44          H47   1.082       .  S
C45          C46   1.383       .  A
C45         C532   1.482       .  S
C46          H48   1.082       .  S
N49          N50   1.320       .  A
N49          C53   1.349       .  A
N49         Cu57   2.076       .  S
N50          C51   1.339       .  A
N50         Cu56   2.056       .  S
C51          C52   1.380       .  A
C51          H54   1.082       .  S
C52          C53   1.387       .  A
C52         C502   1.479       .  S
C53          H55   1.082       .  S
Cu56         N59   2.056   1_554  S
Cu57         N67   2.078       .  S
Cu58         N60   2.078       .  S
Cu58         N66   2.080       .  S
N59          N60   1.320       .  A
N59          C63   1.339       .  A
N60          C61   1.349       .  A
C61          C62   1.387       .  A
C61          H64   1.082       .  S
C62          C63   1.380       .  A
C62         C522   1.479       .  S
C63          H65   1.082       .  S
N66          N67   1.325   1_556  A
N66          C70   1.345       .  A
N67          C68   1.344       .  A
C68          C69   1.382   1_554  A
C68          H71   1.082       .  S
C69          C70   1.383       .  A
C69         C515   1.479       .  S
C70          H72   1.082       .  S
N73          N74   1.320       .  A
N73          C77   1.348       .  A
N73         Cu81   2.072       .  S
N74          C75   1.340       .  A
N74         Cu80   2.060       .  S
C75          C76   1.381       .  A
C75          H78   1.082       .  S
C76          C77   1.385       .  A
C76         C552   1.476       .  S
C77          H79   1.082       .  S
Cu80         N83   2.060   1_556  S
Cu81         N91   2.073       .  S
Cu82         N84   2.078       .  S
Cu82         N90   2.080       .  S
N83          N84   1.321       .  A
N83          C87   1.340       .  A
N84          C85   1.349       .  A
C85          C86   1.386       .  A
C85          H88   1.082       .  S
C86          C87   1.380       .  A
C86         C505   1.477       .  S
C87          H89   1.082   1_554  S
N90          N91   1.324   1_554  A
N90          C94   1.345       .  A
N91          C92   1.343       .  A
C92          C93   1.383   1_556  A
C92          H95   1.082       .  S
C93          C94   1.385       .  A
C93         C492   1.483   1_554  S
C94          H96   1.082       .  S
N97          N98   1.322       .  A
N97         C101   1.349       .  A
N97        Cu105   2.079       .  S
N98          C99   1.342       .  A
N98        Cu104   2.063   1_455  S
C99         C100   1.379       .  A
C99         H102   1.082   1_455  S
C100        C101   1.385       .  A
C100        C465   1.475       .  S
C101        H103   1.082       .  S
Cu104       N107   2.063       .  S
Cu105       N115   2.079       .  S
Cu106       N108   2.079       .  S
Cu106       N114   2.080       .  S
N107        N108   1.321       .  A
N107        C111   1.341       .  A
N108        C109   1.349       .  A
C109        C110   1.386       .  A
C109        H112   1.082       .  S
C110        C111   1.380       .  A
C110        C472   1.477       .  S
C111        H113   1.082       .  S
N114        N115   1.323   1_655  A
N114        C118   1.345       .  A
N115        C116   1.345       .  A
C116        C117   1.386   1_455  A
C116        H119   1.082       .  S
C117        C118   1.386       .  A
C117        C482   1.489       .  S
C118        H120   1.082       .  S
N121        N122   1.322       .  A
N121        C125   1.349       .  A
N121       Cu129   2.078   1_455  S
N122        C123   1.342       .  A
N122       Cu128   2.063       .  S
C123        C124   1.379       .  A
C123        H126   1.082       .  S
C124        C125   1.384       .  A
C124        C462   1.473       .  S
C125        H127   1.082   1_455  S
Cu128       N131   2.063       .  S
Cu129       N139   2.079       .  S
Cu130       N132   2.081   1_655  S
Cu130       N138   2.082       .  S
N131        N132   1.321       .  A
N131        C135   1.341       .  A
N132        C133   1.349   1_455  A
C133        C134   1.387   1_655  A
C133        H136   1.082       .  S
C134        C135   1.381       .  A
C134        C445   1.482   1_455  S
C135        H137   1.082       .  S
N138        N139   1.325       .  A
N138        C142   1.346       .  A
N139        C140   1.345       .  A
C140        C141   1.382       .  A
C140        H143   1.082       .  S
C141        C142   1.383       .  A
C141        C455   1.478       .  S
C142        H144   1.082       .  S
N145        N146   1.321   1_655  A
N145        C149   1.349       .  A
N145       Cu153   2.083       .  S
N146        C147   1.341       .  A
N146       Cu152   2.062       .  S
C147        C148   1.381   1_455  A
C147        H150   1.082       .  S
C148        C149   1.388       .  A
C148        C442   1.482       .  S
C149        H151   1.082       .  S
Cu152       N155   2.062       .  S
Cu153       N163   2.085       .  S
Cu154       N156   2.076   1_655  S
Cu154       N162   2.078       .  S
N155        N156   1.321       .  A
N155        C159   1.341       .  A
N156        C157   1.348       .  A
C157        C158   1.384       .  A
C157        H160   1.082   1_455  S
C158        C159   1.379       .  A
C158        C422   1.474       .  S
C159        H161   1.082       .  S
N162        N163   1.325       .  A
N162        C166   1.345       .  A
N163        C164   1.346       .  A
C164        C165   1.382       .  A
C164        H167   1.082       .  S
C165        C166   1.380       .  A
C165        C435   1.477       .  S
C166        H168   1.082       .  S
N169        N170   1.322       .  A
N169        C173   1.349   1_455  A
N169       Cu177   2.080   1_455  S
N170        C171   1.341       .  A
N170       Cu176   2.062       .  S
C171        C172   1.380       .  A
C171        H174   1.082       .  S
C172        C173   1.386   1_455  A
C172        C475   1.476   1_455  S
C173        H175   1.082       .  S
Cu176       N179   2.062       .  S
Cu177       N187   2.082       .  S
Cu178       N180   2.077   1_655  S
Cu178       N186   2.079       .  S
N179        N180   1.321       .  A
N179        C183   1.341       .  A
N180        C181   1.349   1_455  A
C181        C182   1.385   1_655  A
C181        H184   1.082       .  S
C182        C183   1.379       .  A
C182        C425   1.475   1_455  S
C183        H185   1.082       .  S
N186        N187   1.325       .  A
N186        C190   1.345       .  A
N187        C188   1.346       .  A
C188        C189   1.381       .  A
C188        H191   1.082       .  S
C189        C190   1.380       .  A
C189        C412   1.473       .  S
C190        H192   1.082       .  S
N193        N194   1.321       .  A
N193        C197   1.348       .  A
N193       Cu201   2.076       .  S
N194        C195   1.342       .  A
N194       Cu200   2.065       .  S
C195        C196   1.381       .  A
C195        H198   1.082       .  S
C196        C197   1.385       .  A
C196        C382   1.479       .  S
C197        H199   1.082       .  S
Cu200       N203   2.065       .  S
Cu201       N211   2.077       .  S
Cu202       N204   2.075       .  S
Cu202       N210   2.076       .  S
N203        N204   1.321       .  A
N203        C207   1.342       .  A
N204        C205   1.348       .  A
C205        C206   1.385       .  A
C205        H208   1.082       .  S
C206        C207   1.382       .  A
C206        C392   1.478       .  S
C207        H209   1.082       .  S
N210        N211   1.324       .  A
N210        C214   1.344       .  A
N211        C212   1.345       .  A
C212        C213   1.383       .  A
C212        H215   1.082       .  S
C213        C214   1.382       .  A
C213        C402   1.478       .  S
C214        H216   1.082       .  S
N217        N218   1.320       .  A
N217        C221   1.349       .  A
N217       Cu225   2.079       .  S
N218        C219   1.340       .  A
N218       Cu224   2.058       .  S
C219        C220   1.382       .  A
C219        H222   1.082       .  S
C220        C221   1.389       .  A
C220        C385   1.484       .  S
C221        H223   1.082       .  S
Cu224       N227   2.059       .  S
Cu225       N235   2.081       .  S
Cu226       N228   2.081       .  S
Cu226       N234   2.082       .  S
N227        N228   1.321       .  A
N227        C231   1.340       .  A
N228        C229   1.349       .  A
C229        C230   1.388       .  A
C229        H232   1.082       .  S
C230        C231   1.381       .  A
C230        C365   1.482       .  S
C231        H233   1.082       .  S
N234        N235   1.324       .  A
N234        C238   1.345       .  A
N235        C236   1.344       .  A
C236        C237   1.386       .  A
C236        H239   1.082       .  S
C237        C238   1.386       .  A
C237        C372   1.489       .  S
C238        H240   1.082       .  S
N241        N242   1.321       .  A
N241        C245   1.348       .  A
N241       Cu249   2.073       .  S
N242        C243   1.342       .  A
N242       Cu248   2.065       .  S
C243        C244   1.380       .  A
C243        H246   1.082       .  S
C244        C245   1.384       .  A
C244        C362   1.475       .  S
C245        H247   1.082       .  S
Cu248       N251   2.065       .  S
Cu249       N259   2.074       .  S
Cu250       N252   2.075       .  S
Cu250       N258   2.076       .  S
N251        N252   1.322       .  A
N251        C255   1.341       .  A
N252        C253   1.348       .  A
C253        C254   1.385       .  A
C253        H256   1.082       .  S
C254        C255   1.381       .  A
C254        C342   1.477       .  S
C255        H257   1.082       .  S
N258        N259   1.324       .  A
N258        C262   1.344       .  A
N259        C260   1.344       .  A
C260        C261   1.383       .  A
C260        H263   1.082       .  S
C261        C262   1.384       .  A
C261        C355   1.481       .  S
C262        H264   1.082       .  S
N265        N266   1.319       .  A
N265        C269   1.349       .  A
N265       Cu273   2.079       .  S
N266        C267   1.339       .  A
N266       Cu272   2.051       .  S
C267        C268   1.380       .  A
C267        H270   1.082       .  S
C268        C269   1.389       .  A
C268        C345   1.481       .  S
C269        H271   1.082       .  S
Cu272       N275   2.051       .  S
Cu273       N283   2.081       .  S
Cu274       N276   2.088       .  S
Cu274       N282   2.091       .  S
N275        N276   1.320       .  A
N275        C279   1.338       .  A
N276        C277   1.350       .  A
C277        C278   1.392       .  A
C277        H280   1.082       .  S
C278        C279   1.381       .  A
C278        C395   1.486       .  S
C279        H281   1.082       .  S
N282        N283   1.326       .  A
N282        C286   1.347       .  A
N283        C284   1.344       .  A
C284        C285   1.382       .  A
C284        H287   1.082       .  S
C285        C286   1.385       .  A
C285        C332   1.484       .  S
C286        H288   1.082       .  S
O289       Cu297   2.015   1_545  S
O289        C299   1.278       .  A
O290       Cu297   2.008       .  S
O290        C300   1.277       .  A
O291       Cu297   2.010       .  S
O291        C301   1.278       .  A
O292       Cu297   2.006   1_655  S
O292        C302   1.277       .  A
O293       Cu298   2.013       .  S
O293        C302   1.279       .  A
O294       Cu298   2.014   1_455  S
O294        C301   1.278       .  A
O295       Cu298   2.009       .  S
O295        C300   1.277   1_655  A
O296       Cu298   2.013   1_445  S
O296        C299   1.277       .  A
Cu297      Cu298   2.371   1_455  S
C299        C415   1.474   1_455  S
C300        C452   1.473   1_455  S
C301        C335   1.489       .  S
C302        C375   1.490       .  S
O303       Cu311   2.001       .  S
O303        C313   1.277       .  A
O304       Cu311   2.007   1_544  S
O304        C314   1.278       .  A
O305       Cu311   2.005       .  S
O305        C315   1.277       .  A
O306       Cu311   2.006   1_554  S
O306        C316   1.277       .  A
O307       Cu312   2.003       .  S
O307        C316   1.277       .  A
O308       Cu312   2.005   1_556  S
O308        C315   1.277       .  A
O309       Cu312   2.002   1_546  S
O309        C314   1.277   1_556  A
O310       Cu312   2.009       .  S
O310        C313   1.278   1_554  A
Cu311      Cu312   2.371   1_556  S
C313        C562   1.482   1_556  S
C314        C512   1.479       .  S
C315        C405   1.473       .  S
C316        C352   1.482       .  S
O317       Cu325   2.013   1_556  S
O317        C327   1.277   1_455  A
O318       Cu325   2.022   1_655  S
O318        C328   1.278       .  A
O319       Cu325   2.004   1_656  S
O319        C329   1.275       .  A
O320       Cu325   2.016       .  S
O320        C330   1.279       .  A
O321       Cu326   2.005   1_455  S
O321        C330   1.276       .  A
O322       Cu326   2.014       .  S
O322        C329   1.278   1_554  A
O323       Cu326   2.019       .  S
O323        C328   1.278       .  A
O324       Cu326   2.014   1_556  S
O324        C327   1.277       .  A
Cu325      Cu326   2.360   1_455  S
C327        C485   1.508       .  S
C328        C432   1.481       .  S
C329        C535   1.494       .  S
C330        C495   1.492   1_554  S
C331        C332   1.410       .  A
C331        C336   1.409       .  A
C331       Br338   1.933       .  S
C332        C333   1.412       .  A
C333        C334   1.410       .  A
C333       Br340   1.933   1_565  S
C334        C335   1.416       .  A
C334       Br339   1.933   1_565  S
C335        C336   1.417       .  A
C336       Br337   1.935       .  S
C341        C342   1.410       .  A
C341        C346   1.411       .  A
C341       Br348   1.929   1_565  S
C342        C343   1.409       .  A
C343        C344   1.404       .  A
C343       Br350   1.933       .  S
C344        C345   1.412       .  A
C344       Br349   1.933       .  S
C345        C346   1.413       .  A
C346       Br347   1.929   1_565  S
C351        C352   1.413       .  A
C351        C356   1.408       .  A
C351       Br358   1.934   1_565  S
C352        C353   1.414       .  A
C353        C354   1.408       .  A
C353       Br360   1.934       .  S
C354        C355   1.411       .  A
C354       Br359   1.933       .  S
C355        C356   1.412       .  A
C356       Br357   1.933   1_565  S
C361        C362   1.407       .  A
C361        C366   1.410       .  A
C361       Br368   1.930   1_565  S
C362        C363   1.408       .  A
C363        C364   1.405       .  A
C363       Br370   1.932       .  S
C364        C365   1.413       .  A
C364       Br369   1.932       .  S
C365        C366   1.414       .  A
C366       Br367   1.929   1_565  S
C371        C372   1.414       .  A
C371        C376   1.409       .  A
C371       Br378   1.934   1_565  S
C372        C373   1.414       .  A
C373        C374   1.410       .  A
C373       Br380   1.934       .  S
C374        C375   1.416       .  A
C374       Br379   1.936       .  S
C375        C376   1.417       .  A
C376       Br377   1.936   1_565  S
C381        C382   1.410       .  A
C381        C386   1.411       .  A
C381       Br388   1.930       .  S
C382        C383   1.410       .  A
C383        C384   1.405       .  A
C383       Br390   1.933   1_565  S
C384        C385   1.413       .  A
C384       Br389   1.934   1_565  S
C385        C386   1.414       .  A
C386       Br387   1.930       .  S
C391        C392   1.409       .  A
C391        C396   1.405       .  A
C391       Br398   1.934   1_565  S
C392        C393   1.409       .  A
C393        C394   1.411       .  A
C393       Br400   1.930       .  S
C394        C395   1.415       .  A
C394       Br399   1.929       .  S
C395        C396   1.414       .  A
C396       Br397   1.934   1_565  S
C401        C402   1.412       .  A
C401        C406   1.407       .  A
C401       Br408   1.931       .  S
C402        C403   1.411       .  A
C403        C404   1.407       .  A
C403       Br410   1.931   1_565  S
C404        C405   1.410       .  A
C404       Br409   1.932   1_565  S
C405        C406   1.409       .  A
C406       Br407   1.932       .  S
C411        C412   1.408   1_455  A
C411        C416   1.408       .  A
C411       Br418   1.929       .  S
C412        C413   1.407       .  A
C413        C414   1.407       .  A
C413       Br420   1.929       .  S
C414        C415   1.409       .  A
C414       Br419   1.925       .  S
C415        C416   1.408   1_655  A
C416       Br417   1.925       .  S
C421        C422   1.409   1_655  A
C421        C426   1.405       .  A
C421       Br428   1.930       .  S
C422        C423   1.409       .  A
C423        C424   1.409       .  A
C423       Br430   1.929       .  S
C424        C425   1.410   1_455  A
C424       Br429   1.929       .  S
C425        C426   1.409       .  A
C426       Br427   1.931       .  S
C431        C432   1.409   1_455  A
C431        C436   1.408       .  A
C431       Br438   1.921       .  S
C432        C433   1.410       .  A
C433        C434   1.408       .  A
C433       Br440   1.922       .  S
C434        C435   1.408       .  A
C434       Br439   1.930       .  S
C435        C436   1.409   1_655  A
C436       Br437   1.930       .  S
C441        C442   1.411   1_455  A
C441        C446   1.411       .  A
C441       Br448   1.930       .  S
C442        C443   1.411       .  A
C443        C444   1.406       .  A
C443       Br450   1.933       .  S
C444        C445   1.411       .  A
C444       Br449   1.933       .  S
C445        C446   1.412   1_655  A
C446       Br447   1.930       .  S
C451        C452   1.409       .  A
C451        C456   1.407       .  A
C451       Br458   1.931       .  S
C452        C453   1.409   1_655  A
C453        C454   1.409       .  A
C453       Br460   1.931       .  S
C454        C455   1.412   1_455  A
C454       Br459   1.930       .  S
C455        C456   1.410       .  A
C456       Br457   1.930       .  S
C461        C462   1.408   1_655  A
C461        C466   1.407       .  A
C461       Br468   1.929       .  S
C462        C463   1.408       .  A
C463        C464   1.407       .  A
C463       Br470   1.929       .  S
C464        C465   1.409       .  A
C464       Br469   1.929       .  S
C465        C466   1.409   1_455  A
C466       Br467   1.930       .  S
C471        C472   1.409       .  A
C471        C476   1.405       .  A
C471       Br478   1.931       .  S
C472        C473   1.411   1_655  A
C473        C474   1.410       .  A
C473       Br480   1.929       .  S
C474        C475   1.409   1_455  A
C474       Br479   1.929       .  S
C475        C476   1.409       .  A
C476       Br477   1.931       .  S
C481        C482   1.410   1_455  A
C481        C486   1.411       .  A
C481       Br488   1.937       .  S
C482        C483   1.410       .  A
C483        C484   1.411       .  A
C483       Br490   1.937       .  S
C484        C485   1.426       .  A
C484       Br489   1.935       .  S
C485        C486   1.426   1_655  A
C486       Br487   1.935       .  S
C491        C492   1.410       .  A
C491        C496   1.408       .  A
C491       Br498   1.935       .  S
C492        C493   1.411   1_556  A
C493        C494   1.409       .  A
C493       Br500   1.934       .  S
C494        C495   1.418   1_554  A
C494       Br499   1.933       .  S
C495        C496   1.417       .  A
C496       Br497   1.930       .  S
C501        C502   1.411       .  A
C501        C506   1.404       .  A
C501       Br508   1.933       .  S
C502        C503   1.412   1_554  A
C503        C504   1.411       .  A
C503       Br510   1.930       .  S
C504        C505   1.410   1_556  A
C504       Br509   1.929       .  S
C505        C506   1.409       .  A
C506       Br507   1.933       .  S
C511        C512   1.413   1_556  A
C511        C516   1.408       .  A
C511       Br518   1.934       .  S
C512        C513   1.413       .  A
C513        C514   1.407       .  A
C513       Br520   1.934       .  S
C514        C515   1.411   1_554  A
C514       Br519   1.932       .  S
C515        C516   1.411       .  A
C516       Br517   1.932       .  S
C521        C522   1.411       .  A
C521        C526   1.404       .  A
C521       Br528   1.933       .  S
C522        C523   1.411   1_556  A
C523        C524   1.411       .  A
C523       Br530   1.929       .  S
C524        C525   1.411   1_554  A
C524       Br529   1.930       .  S
C525        C526   1.410       .  A
C526       Br527   1.933       .  S
C531        C532   1.409       .  A
C531        C536   1.408       .  A
C531       Br538   1.936       .  S
C532        C533   1.411   1_556  A
C533        C534   1.409       .  A
C533       Br540   1.935       .  S
C534        C535   1.420   1_554  A
C534       Br539   1.935       .  S
C535        C536   1.419       .  A
C536       Br537   1.932       .  S
C541        C542   1.409       .  A
C541        C546   1.404       .  A
C541       Br548   1.933       .  S
C542        C543   1.410   1_554  A
C543        C544   1.411       .  A
C543       Br550   1.929       .  S
C544        C545   1.412   1_556  A
C544       Br549   1.929       .  S
C545        C546   1.411       .  A
C546       Br547   1.933       .  S
C551        C552   1.411   1_554  A
C551        C556   1.410       .  A
C551       Br558   1.930       .  S
C552        C553   1.409       .  A
C553        C554   1.404       .  A
C553       Br560   1.932       .  S
C554        C555   1.410       .  A
C554       Br559   1.932       .  S
C555        C556   1.411   1_556  A
C556       Br557   1.929       .  S
C561        C562   1.414       .  A
C561        C566   1.408       .  A
C561       Br568   1.935       .  S
C562        C563   1.413   1_554  A
C563        C564   1.408       .  A
C563       Br570   1.934       .  S
C564        C565   1.412   1_556  A
C564       Br569   1.933       .  S
C565        C566   1.411       .  A
C566       Br567   1.933       .  S
