geometry optimzed in LAMMPS
_audit_creation_date              2020-11-30 
_audit_creation_method            'lammps2cif' 
_symmetry_space_group_name_H-M    'P1' 
_symmetry_Int_Tables_number       1 
_symmetry_cell_setting            triclinic 
loop_ 
_symmetry_equiv_pos_as_xyz 
  x,y,z 
_cell_length_a                    59.6867846 
_cell_length_b                    37.097605903893246 
_cell_length_c                    45.26734337936975 
_cell_angle_alpha                 93.96332227914536 
_cell_angle_beta                  137.28334962561178 
_cell_angle_gamma                 88.18642890893749 
loop_ 
_atom_site_label 
_atom_site_type_symbol 
_atom_site_fract_x 
_atom_site_fract_y 
_atom_site_fract_z 
_atom_site_charge 
C1          C  0.15800216  0.70957597  0.32664528     0.86700
C2          C  0.13090373  0.68176343  0.30691245    -0.53500
C3          C  0.13664773  0.66295016  0.33667391     0.09700
C4          C  0.16992791  0.67304375  0.38428136     0.20600
C5          C  0.16260918  0.73323749  0.36040602    -0.54200
C6          C  0.16884686  0.71412101  0.39056742     0.11400
C7          C  0.18956440  0.68811480  0.35433813    -0.53800
C8          C  0.19621210  0.66917671  0.38498810     0.10300
H9          H  0.10758639  0.67954986  0.27233328     0.14800
H10         H  0.17509884  0.65741951  0.40875974     0.00600
H11         H  0.16170973  0.76253228  0.36100246     0.15100
H12         H  0.20615407  0.68941088  0.35162357     0.14900
O13         O  0.23974631  0.26946944  0.20928827    -0.57600
C14         C  0.30860361  0.34380514  0.23811051     0.75100
O15         O  0.97776824  0.21561141  0.26383828    -0.58700
C16         C  0.22042863  0.24933910  0.17435830     0.75000
C17         C  0.29243525  0.24651743  0.16352125     0.77400
Cd18       Cd  0.28549115  0.26950191  0.21838496     1.37500
O19         O  0.27804761  0.33595294  0.21045670    -0.57600
O20         O  0.26601979  0.25965884  0.14830505    -0.56400
C21         C  0.98249926  0.23088278  0.29410040     0.77400
O22         O  0.98190579  0.24181739  0.20412443    -0.58800
O23         O  0.99459164  0.31766681  0.25719133    -0.57200
O24         O  0.22905297  0.24265171  0.15613694    -0.57200
O25         O  0.30996450  0.26422743  0.29135971    -0.56400
O26         O  0.04808028  0.55914901  0.28407602    -0.57600
C27         C  0.10845600  0.64476021  0.32307647     0.75100
O28         O  0.35070580  0.67821846  0.23300178    -0.58700
C29         C  0.01764554  0.55255941  0.25902033     0.75000
C30         C  0.37150634  0.64878247  0.33644793     0.77400
Cd31       Cd  0.04315551  0.62561465  0.27949908     1.37500
O32         O  0.09012951  0.62198868  0.29051928    -0.57600
O33         O  0.06260328  0.63177244  0.34945672    -0.56400
C34         C  0.34624083  0.66249470  0.20313066     0.77400
O35         O  0.34968470  0.65711381  0.29697031    -0.58800
O36         O  0.09872679  0.65493511  0.33931278    -0.57200
O37         O  0.33249386  0.57953657  0.24264396    -0.57200
O38         O  0.01889829  0.62917141  0.20633970    -0.56400
O39         O  0.28414948  0.56134043  0.47076150    -0.57600
C40         C  0.22899397  0.65362791  0.42039829     0.75100
O41         O  0.98736709  0.67843857  0.04544101    -0.58700
C42         C  0.98111638  0.55312733  0.99695754     0.75000
C43         C  0.98132240  0.64877249  0.44858178     0.77400
Cd44       Cd  0.29546561  0.62818945  0.48787441     1.37500
O45         O  0.23429849  0.62674438  0.44065217    -0.57600
O46         O  0.28613710  0.63711545  0.42738559    -0.56400
C47         C  0.98478522  0.66187811  0.06642085     0.77400
O48         O  0.00250203  0.65139746  0.48995892    -0.58800
O49         O  0.25374387  0.66762262  0.43216843    -0.57200
O50         O  0.00183148  0.57934909  0.01914243    -0.57200
O51         O  0.30654023  0.62984999  0.05220903    -0.56400
O52         O  0.09518194  0.26719725  0.05605065    -0.57600
C53         C  0.01335399  0.34194760  0.99416853     0.75100
O54         O  0.34074846  0.21688618  0.45131610    -0.58700
C55         C  0.10014019  0.24035097  0.07609449     0.75000
C56         C  0.01593988  0.25239310  0.05118042     0.77400
Cd57       Cd  0.03384647  0.26732154  0.00896827     1.37500
O58         O  0.04368997  0.33425211  0.02165989    -0.57600
O59         O  0.04197646  0.26937734  0.06943178    -0.56400
C60         C  0.34445254  0.23228450  0.43092610     0.77400
O61         O  0.32967906  0.24200828  0.01111191    -0.58800
O62         O  0.32665180  0.31580237  0.47285868    -0.57200
O63         O  0.07521832  0.22712998  0.06446129    -0.57200
O64         O  0.02406699  0.26375991  0.44565054    -0.56400
C65         C  0.17067696  0.18367274  0.16975121     0.86700
C66         C  0.13914101  0.20525830  0.14176090    -0.53500
C67         C  0.13270741  0.22408141  0.11119941     0.09700
C68         C  0.15917925  0.21985171  0.11222416     0.20600
C69         C  0.16622100  0.15976589  0.13630873    -0.54200
C70         C  0.16013298  0.17864970  0.10613319     0.09800
C71         C  0.19784604  0.21131478  0.18959349    -0.53800
C72         C  0.19235622  0.22997741  0.15998086     0.10300
H73         H  0.12251571  0.20431942  0.14443997     0.14800
H74         H  0.15422727  0.23524188  0.08777753     0.00600
H75         H  0.16687001  0.13045739  0.13572850     0.15100
H76         H  0.22093264  0.21381300  0.22430651     0.14900
O77         O  0.11884231  0.05885423  0.47855981    -0.57600
C78         C  0.06206358  0.15339315  0.42268213     0.75100
O79         O  0.15642881  0.17541575  0.04920678    -0.58700
C80         C  0.14917000  0.05169635  0.00244624     0.75000
C81         C  0.14409062  0.14301205  0.44580828     0.77400
Cd82       Cd  0.12799143  0.12600346  0.48954836     1.37500
O83         O  0.06637999  0.12445766  0.43966763    -0.57600
O84         O  0.11795633  0.12629416  0.42761184    -0.56400
C85         C  0.15114462  0.16069031  0.06814879     0.77400
O86         O  0.16450914  0.15199798  0.48637450    -0.58800
O87         O  0.08753142  0.16871924  0.43741708    -0.57200
O88         O  0.16913598  0.07855240  0.02145923    -0.57200
O89         O  0.13671402  0.12994887  0.05203038    -0.56400
O90         O  0.26057098  0.76594786  0.05439949    -0.57600
C91         C  0.18025724  0.84017891  0.49713987     0.75100
O92         O  0.17435294  0.71505132  0.44900190    -0.58700
C93         C  0.26574834  0.73895802  0.07440461     0.75000
C94         C  0.17873847  0.74522850  0.04450526     0.77400
Cd95       Cd  0.19928709  0.76518078  0.00666459     1.37500
O96         O  0.21035401  0.83239847  0.02082975    -0.57600
O97         O  0.20685629  0.75877835  0.06616545    -0.56400
C98         C  0.17716794  0.73158150  0.42825624     0.77400
O99         O  0.15862237  0.74048235  0.00341154    -0.58800
O100        O  0.15988846  0.81369933  0.47761171    -0.57200
O101        O  0.24094035  0.72531062  0.06275707    -0.57200
O102        O  0.18856403  0.76367938  0.44238144    -0.56400
C103        C  0.32473924  0.20999149  0.32909927     0.86700
C104        C  0.29769811  0.18203999  0.30917079    -0.53500
C105        C  0.30322371  0.16326884  0.33879095     0.09700
C106        C  0.00308452  0.17335626  0.38651408     0.20600
C107        C  0.99573925  0.23353977  0.36262367    -0.54200
C108        C  0.00200819  0.21444841  0.39280097     0.09800
C109        C  0.02310981  0.18865863  0.35710034    -0.53800
C110        C  0.02951595  0.16951441  0.38746433     0.10300
H111        H  0.27449842  0.17979233  0.27451787     0.14800
H112        H  0.00816446  0.15774340  0.41093134     0.00600
H113        H  0.99497522  0.26284559  0.36333721     0.15100
H114        H  0.03983991  0.18997359  0.35462588     0.14900
O115        O  0.21856571  0.06045658  0.29391323    -0.57600
C116        C  0.27486998  0.14509838  0.32482508     0.75100
O117        O  0.18477795  0.17968595  0.23540323    -0.58700
C118        C  0.18805326  0.05204246  0.26546659     0.75000
C119        C  0.20039900  0.15312489  0.33348703     0.77400
Cd120      Cd  0.20965055  0.12669958  0.28166706     1.37500
O121        O  0.25531598  0.12441628  0.29038119    -0.57600
O122        O  0.22827211  0.14376605  0.35047251    -0.56400
C123        C  0.17943792  0.16350572  0.20499774     0.77400
O124        O  0.17698734  0.15293534  0.29213917    -0.58800
O125        O  0.26632984  0.15334882  0.34295014    -0.57200
O126        O  0.16842426  0.07768699  0.24469183    -0.57200
O127        O  0.18457583  0.12998094  0.20788854    -0.56400
O128        O  0.07208103  0.77061845  0.20650225    -0.57600
C129        C  0.14453173  0.84250363  0.23994477     0.75100
O130        O  0.14268177  0.71460613  0.26007468    -0.58700
C131        C  0.05292254  0.74962661  0.17229314     0.75000
C132        C  0.12232110  0.74845753  0.15733110     0.77400
Cd133      Cd  0.11830145  0.76914712  0.21590682     1.37500
O134        O  0.11392369  0.83594135  0.21385519    -0.57600
O135        O  0.09907926  0.76699472  0.14595427    -0.56400
C136        C  0.14910330  0.73027773  0.29155680     0.77400
O137        O  0.14354699  0.73800604  0.19591414    -0.58800
O138        O  0.16281224  0.81535418  0.25572621    -0.57200
O139        O  0.06182986  0.74166553  0.15461183    -0.57200
O140        O  0.14500812  0.76399536  0.29009441    -0.56400
C141        C  0.33726652  0.68306117  0.16799345     0.86700
C142        C  0.30523293  0.70367713  0.13983434    -0.53500
C143        C  0.29847265  0.72302650  0.10936973     0.09700
C144        C  0.32503869  0.72015035  0.11048931     0.20600
C145        C  0.33340501  0.65978085  0.13472867    -0.54200
C146        C  0.32682729  0.67917056  0.10445340     0.09800
C147        C  0.03055413  0.71162371  0.18786005    -0.53800
C148        C  0.02475307  0.73071019  0.15822251     0.10300
H149        H  0.28860373  0.70181713  0.14242879     0.14800
H150        H  0.31971298  0.73599131  0.08602294     0.00600
H151        H  0.33471665  0.63051452  0.13428484     0.15100
H152        H  0.05371462  0.71411802  0.22252540     0.14900
C153        C  0.15824222  0.87969494  0.25078284    -0.05000
C154        C  0.19239479  0.88584251  0.28006471    -0.04900
C155        C  0.20529288  0.92072033  0.28909872    -0.23100
C156        C  0.18426922  0.95015193  0.26890247     0.19100
C157        C  0.14991319  0.94419933  0.23941585     0.16300
C158        C  0.13718016  0.90916680  0.23072176    -0.18100
C159        C  0.12873921  0.97336837  0.21882223    -0.20000
C160        C  0.14136898  0.00813732  0.22732595    -0.12500
C161        C  0.17547270  0.01462073  0.25672983     0.04200
C162        C  0.19689088  0.98537264  0.27752399    -0.24600
H163        H  0.20918401  0.86359796  0.29584777     0.09200
H164        H  0.23167854  0.92462883  0.31171028     0.12800
H165        H  0.11080168  0.90481827  0.20791853     0.12800
H166        H  0.10234807  0.96930876  0.19606925     0.12500
H167        H  0.12429951  0.03010146  0.21091292     0.13100
H168        H  0.22322621  0.98996789  0.30022191     0.15000
C169        C  0.17073401  0.73624425  0.06728975    -0.05000
C170        C  0.19655695  0.72733370  0.11098919    -0.04900
C171        C  0.19113633  0.72393618  0.13584447    -0.23100
C172        C  0.15993636  0.73036323  0.11784011     0.19100
C173        C  0.13339815  0.73819714  0.07345395     0.16300
C174        C  0.13879577  0.74030688  0.04806959    -0.18100
C175        C  0.10249961  0.74582197  0.05610615    -0.20000
C176        C  0.09851950  0.74773290  0.08304808    -0.12500
C177        C  0.12512082  0.74115798  0.12755320     0.04200
C178        C  0.15543180  0.73114277  0.14426928    -0.24600
H179        H  0.22131243  0.72387730  0.12634907     0.09200
H180        H  0.21172618  0.71784818  0.16973178     0.12800
H181        H  0.11882855  0.74751180  0.01450550     0.12800
H182        H  0.08180502  0.75180008  0.02220121     0.12500
H183        H  0.07482353  0.75531132  0.06931322     0.13100
H184        H  0.17615288  0.72622471  0.17855131     0.15000
C185        C  0.14955028  0.15100413  0.41987102    -0.05000
C186        C  0.12242533  0.14873309  0.37406501    -0.04900
C187        C  0.12677658  0.15263661  0.34813376    -0.23100
C188        C  0.15844911  0.15837571  0.36743046     0.19100
C189        C  0.18591343  0.16193916  0.41348331     0.16300
C190        C  0.18124376  0.15874186  0.43953705    -0.18100
C191        C  0.21765178  0.16694491  0.43249863    -0.20000
C192        C  0.22226678  0.16613161  0.40626805    -0.12500
C193        C  0.19517151  0.16108615  0.36055279     0.04200
C194        C  0.16319225  0.15867125  0.34134035    -0.24600
H195        H  0.09769545  0.14326848  0.35810139     0.09200
H196        H  0.10545545  0.14997272  0.31293384     0.12800
H197        H  0.20231161  0.16052992  0.47480929     0.12800
H198        H  0.23902462  0.16996524  0.46767135     0.12500
H199        H  0.24717461  0.16818097  0.42183679     0.13100
H200        H  0.14214094  0.15451532  0.30617067     0.15000
C201        C  0.16978459  0.87810204  0.99341376    -0.05000
C202        C  0.13643262  0.88422366  0.46942937    -0.04900
C203        C  0.12593209  0.91923420  0.46687050    -0.23100
C204        C  0.14815071  0.94884054  0.48795775     0.19100
C205        C  0.18178374  0.94317754  0.01214601     0.16300
C206        C  0.19220266  0.90777419  0.01460415    -0.18100
C207        C  0.20401072  0.97283509  0.03339925    -0.20000
C208        C  0.19344976  0.00786632  0.03083294    -0.12500
C209        C  0.16041026  0.01410438  0.00691254     0.04200
C210        C  0.13770608  0.98416311  0.48556790    -0.24600
H211        H  0.11867377  0.86194322  0.45308583     0.09200
H212        H  0.10040625  0.92311719  0.44850302     0.12800
H213        H  0.21774039  0.90332234  0.03327876     0.12800
H214        H  0.22957105  0.96897446  0.05190862     0.12500
H215        H  0.21116107  0.03020709  0.04724978     0.13100
H216        H  0.11219439  0.98849143  0.46707957     0.15000
C217        C  0.00208529  0.37975495  0.98774637    -0.05000
C218        C  0.30145825  0.38694756  0.95506481    -0.04900
C219        C  0.29047811  0.42221194  0.95004723    -0.23100
C220        C  0.31320938  0.45107272  0.97778791     0.19100
C221        C  0.01407355  0.44423772  0.01053034     0.16300
C222        C  0.02494375  0.40874159  0.01519529    -0.18100
C223        C  0.03684888  0.47300541  0.03833685    -0.20000
C224        C  0.02594500  0.50815181  0.03387488    -0.12500
C225        C  0.99200967  0.51539028  0.00157681     0.04200
C226        C  0.30237740  0.48657197  0.97351986    -0.24600
H227        H  0.28327083  0.36519020  0.93347004     0.09200
H228        H  0.26416814  0.42684637  0.92468797     0.12800
H229        H  0.05117670  0.40363574  0.04064133     0.12800
H230        H  0.06315274  0.46833343  0.06362811     0.12500
H231        H  0.04420849  0.52976711  0.05586630     0.13100
H232        H  0.27615708  0.49175313  0.94831373     0.15000
C233        C  0.98863552  0.65780622  0.42500087    -0.05000
C234        C  0.29565586  0.66518514  0.38075444    -0.04900
C235        C  0.30085840  0.66881373  0.35567491    -0.23100
C236        C  0.33241129  0.66443883  0.37413301     0.19100
C237        C  0.02601672  0.65835308  0.41903023     0.16300
C238        C  0.02072827  0.65568576  0.44444002    -0.18100
C239        C  0.05741087  0.65314286  0.43709868    -0.20000
C240        C  0.06165735  0.65182052  0.41049295    -0.12500
C241        C  0.03474468  0.65640258  0.36550460     0.04200
C242        C  0.33706830  0.66407100  0.34787313    -0.24600
H243        H  0.27073714  0.66724865  0.36515687     0.09200
H244        H  0.27994993  0.67362058  0.32141313     0.12800
H245        H  0.04111319  0.64979448  0.47844861     0.12800
H246        H  0.07840653  0.64861521  0.47142425     0.12500
H247        H  0.08585875  0.64606544  0.42490469     0.13100
H248        H  0.31610386  0.66743098  0.31320340     0.15000
C249        C  0.34316547  0.24559726  0.07666202    -0.05000
C250        C  0.03683803  0.24756287  0.12247107    -0.04900
C251        C  0.03221512  0.24455228  0.14819950    -0.23100
C252        C  0.00037621  0.24021615  0.12873289     0.19100
C253        C  0.30621397  0.23752999  0.08266033     0.16300
C254        C  0.31116114  0.23955120  0.05674954    -0.18100
C255        C  0.27429399  0.23452554  0.06359913    -0.20000
C256        C  0.26971309  0.23601094  0.08991525    -0.12500
C257        C  0.29700723  0.23939192  0.13569975     0.04200
C258        C  0.99562839  0.24029221  0.15480572    -0.24600
H259        H  0.06174884  0.25191586  0.13860559     0.09200
H260        H  0.05351915  0.24672644  0.18341748     0.12800
H261        H  0.29016414  0.23822077  0.02147419     0.12800
H262        H  0.25285618  0.23241150  0.02841306     0.12500
H263        H  0.24480125  0.23531592  0.07447732     0.13100
H264        H  0.01679667  0.24339770  0.19004260     0.15000
C265        C  0.33766982  0.51550314  0.24969827    -0.05000
C266        C  0.30341467  0.50886935  0.21883585    -0.04900
C267        C  0.29076685  0.47401483  0.21040517    -0.23100
C268        C  0.31215729  0.44515765  0.23289404     0.19100
C269        C  0.01330448  0.45160471  0.26413332     0.16300
C270        C  0.02580375  0.48662588  0.27224365    -0.18100
C271        C  0.03476747  0.42289782  0.28679260    -0.20000
C272        C  0.02225643  0.38807641  0.27849308    -0.12500
C273        C  0.32135853  0.38119812  0.24740041     0.04200
C274        C  0.29971696  0.40999465  0.22468761    -0.24600
H275        H  0.28633393  0.53067099  0.20110679     0.09200
H276        H  0.26427261  0.46965826  0.18637060     0.12800
H277        H  0.05226407  0.49141333  0.29632006     0.12800
H278        H  0.06125676  0.42733872  0.31086414     0.12500
H279        H  0.03947951  0.36640940  0.29635663     0.13100
H280        H  0.27327230  0.40504270  0.20052103     0.15000
C281        C  0.15799668  0.70929650  0.82662837     0.86700
C282        C  0.13094771  0.68143025  0.80691374    -0.53500
C283        C  0.13671546  0.66260284  0.83668500     0.09700
C284        C  0.16998423  0.67275263  0.88430631     0.20600
C285        C  0.16254907  0.73294215  0.86034359    -0.54200
C286        C  0.16882104  0.71383337  0.89053350     0.11400
C287        C  0.18958392  0.68789659  0.85433321    -0.53800
C288        C  0.19627849  0.66895066  0.88501334     0.10300
H289        H  0.10764793  0.67916770  0.77232376     0.14800
H290        H  0.17517689  0.65712751  0.90880003     0.00600
H291        H  0.16158359  0.76223264  0.86088486     0.15100
H292        H  0.20614066  0.68921391  0.85156565     0.14900
O293        O  0.23940120  0.27000225  0.70858902    -0.57600
C294        C  0.30897623  0.34327074  0.73873675     0.75100
O295        O  0.97775931  0.21520683  0.76389919    -0.58700
C296        C  0.22054494  0.24900677  0.67436559     0.75000
C297        C  0.29250710  0.24700223  0.66351203     0.77400
Cd298      Cd  0.28563854  0.26913087  0.71859943     1.37500
O299        O  0.27839383  0.33550216  0.71097386    -0.57600
O300        O  0.26630613  0.26056562  0.64859259    -0.56400
C301        C  0.98245395  0.23047290  0.79413244     0.77400
O302        O  0.98182227  0.24155534  0.70392447    -0.58800
O303        O  0.99492464  0.31709869  0.75785673    -0.57200
O304        O  0.22967863  0.24129982  0.65691840    -0.57200
O305        O  0.30998167  0.26383068  0.79145181    -0.56400
O306        O  0.04840125  0.55856230  0.78435181    -0.57600
C307        C  0.10856344  0.64421128  0.82301998     0.75100
O308        O  0.35065443  0.67775442  0.73320583    -0.58700
C309        C  0.01798059  0.55190710  0.75930315     0.75000
C310        C  0.37185407  0.64865919  0.83669756     0.77400
Cd311      Cd  0.04332791  0.62505297  0.77966041     1.37500
O312        O  0.08982584  0.62217971  0.78975559    -0.57600
O313        O  0.06299595  0.63171224  0.84977229    -0.56400
C314        C  0.34617624  0.66214828  0.70327979     0.77400
O315        O  0.34991518  0.65670363  0.79711221    -0.58800
O316        O  0.09928382  0.65353775  0.84000581    -0.57200
O317        O  0.33279388  0.57884934  0.74293446    -0.57200
O318        O  0.01894005  0.62885468  0.70646637    -0.56400
O319        O  0.28429851  0.56117770  0.97068056    -0.57600
C320        C  0.22906643  0.65334413  0.92032100     0.75100
O321        O  0.98716303  0.67849889  0.54554808    -0.58700
C322        C  0.98099536  0.55334272  0.49718950     0.75000
C323        C  0.98156620  0.64896677  0.94864920     0.77400
Cd324      Cd  0.29564118  0.62804394  0.98779949     1.37500
O325        O  0.23452347  0.62681719  0.94107585    -0.57600
O326        O  0.28632068  0.63745817  0.92736883    -0.56400
C327        C  0.98466800  0.66184354  0.56656972     0.77400
O328        O  0.00275350  0.65132429  0.99002804    -0.58800
O329        O  0.25368662  0.66695551  0.93150757    -0.57200
O330        O  0.00168482  0.57958615  0.51945532    -0.57200
O331        O  0.30645120  0.62980529  0.55233838    -0.56400
O332        O  0.09541829  0.26730554  0.55616789    -0.57600
C333        C  0.01371473  0.34236665  0.49436611     0.75100
O334        O  0.34058532  0.21644342  0.95122653    -0.58700
C335        C  0.10030372  0.24053988  0.57625394     0.75000
C336        C  0.01610803  0.25266175  0.55125911     0.77400
Cd337      Cd  0.03410880  0.26770464  0.50916037     1.37500
O338        O  0.04406212  0.33466277  0.52209393    -0.57600
O339        O  0.04223837  0.26952069  0.56966813    -0.56400
C340        C  0.34424464  0.23186744  0.93080122     0.77400
O341        O  0.32980839  0.24251615  0.51112108    -0.58800
O342        O  0.32629428  0.31537483  0.97283124    -0.57200
O343        O  0.07535931  0.22749437  0.56467940    -0.57200
O344        O  0.02374293  0.26339754  0.94542657    -0.56400
C345        C  0.17067808  0.18368839  0.66983732     0.86700
C346        C  0.13919382  0.20536820  0.64186980    -0.53500
C347        C  0.13280717  0.22415190  0.61132088     0.09700
C348        C  0.15925359  0.21978265  0.61232078     0.20600
C349        C  0.16616528  0.15972858  0.63636928    -0.54200
C350        C  0.16011744  0.17856881  0.60620066     0.09800
C351        C  0.19791024  0.21124649  0.68969049    -0.53800
C352        C  0.19244002  0.22986018  0.66006625     0.10300
H353        H  0.12257303  0.20453103  0.64456368     0.14800
H354        H  0.15433744  0.23514613  0.58788630     0.00600
H355        H  0.16675383  0.13041799  0.63577320     0.15100
H356        H  0.22101704  0.21370744  0.72439366     0.14900
O357        O  0.11918665  0.05895275  0.97872965    -0.57600
C358        C  0.06205467  0.15312594  0.92267617     0.75100
O359        O  0.15624141  0.17536525  0.54911664    -0.58700
C360        C  0.14879348  0.05153050  0.50214502     0.75000
C361        C  0.14432383  0.14344380  0.94600229     0.77400
Cd362      Cd  0.12815311  0.12608719  0.98960455     1.37500
O363        O  0.06652086  0.12423495  0.93982031    -0.57600
O364        O  0.11822040  0.12659924  0.92774458    -0.56400
C365        C  0.15111582  0.16058084  0.56821070     0.77400
O366        O  0.16469639  0.15235732  0.98657233    -0.58800
O367        O  0.08744098  0.16852633  0.93725078    -0.57200
O368        O  0.16880345  0.07834594  0.52114623    -0.57200
O369        O  0.13681617  0.12976719  0.55222252    -0.56400
O370        O  0.26066843  0.76607955  0.55501884    -0.57600
C371        C  0.18053888  0.84033909  0.99732150     0.75100
O372        O  0.17463179  0.71476277  0.94925106    -0.58700
C373        C  0.26568574  0.73875868  0.57453255     0.75000
C374        C  0.17917714  0.74538895  0.54513404     0.77400
Cd375      Cd  0.19932421  0.76516275  0.50678223     1.37500
O376        O  0.21008741  0.83236569  0.52057773    -0.57600
O377        O  0.20716378  0.75919390  0.56656087    -0.56400
C378        C  0.17710075  0.73135326  0.92817881     0.77400
O379        O  0.15901255  0.74033461  0.50404962    -0.58800
O380        O  0.16008252  0.81393741  0.97765366    -0.57200
O381        O  0.24074422  0.72478584  0.56231972    -0.57200
O382        O  0.18811749  0.76359863  0.94193404    -0.56400
C383        C  0.32463860  0.20957397  0.82907153     0.86700
C384        C  0.29760470  0.18161110  0.80912649    -0.53500
C385        C  0.30311510  0.16283376  0.83873616     0.09700
C386        C  0.00298928  0.17292012  0.88647465     0.20600
C387        C  0.99561168  0.23310968  0.86257358    -0.54200
C388        C  0.00187563  0.21401307  0.89274039     0.09800
C389        C  0.02300502  0.18826601  0.85705846    -0.53800
C390        C  0.02943596  0.16911813  0.88743049     0.10300
H391        H  0.27440991  0.17938234  0.77447034     0.14800
H392        H  0.00807955  0.15730004  0.91089506     0.00600
H393        H  0.99481708  0.26241403  0.86326829     0.15100
H394        H  0.03973519  0.18962318  0.85458680     0.14900
O395        O  0.21807721  0.06030939  0.79340170    -0.57600
C396        C  0.27471569  0.14471108  0.82472414     0.75100
O397        O  0.18464970  0.17969670  0.73540069    -0.58700
C398        C  0.18756571  0.05201458  0.76528721     0.75000
C399        C  0.20042578  0.15376448  0.83355637     0.77400
Cd400      Cd  0.20943082  0.12665448  0.78161778     1.37500
O401        O  0.25485817  0.12452264  0.78988839    -0.57600
O402        O  0.22823207  0.14413311  0.85049866    -0.56400
C403        C  0.17937411  0.16352744  0.70504449     0.77400
O404        O  0.17698554  0.15350287  0.79220358    -0.58800
O405        O  0.26645057  0.15255434  0.84325433    -0.57200
O406        O  0.16800294  0.07777918  0.74491860    -0.57200
O407        O  0.18450070  0.13000053  0.70793605    -0.56400
O408        O  0.07238167  0.76988413  0.70727060    -0.57600
C409        C  0.14414788  0.84236248  0.73963511     0.75100
O410        O  0.14247151  0.71429740  0.75991798    -0.58700
C411        C  0.05288106  0.74944288  0.67261576     0.75000
C412        C  0.12251352  0.74792952  0.65766152     0.77400
Cd413      Cd  0.11819195  0.76889584  0.71590252     1.37500
O414        O  0.11357565  0.83571185  0.71369841    -0.57600
O415        O  0.09901148  0.76614168  0.64593461    -0.56400
C416        C  0.14908196  0.72999492  0.79153520     0.77400
O417        O  0.14382440  0.73785287  0.69641098    -0.58800
O418        O  0.16248547  0.81526657  0.75538781    -0.57200
O419        O  0.06141225  0.74204424  0.65437942    -0.57200
O420        O  0.14516627  0.76374482  0.79021482    -0.56400
C421        C  0.33715637  0.68282119  0.66816182     0.86700
C422        C  0.30510482  0.70343374  0.63998130    -0.53500
C423        C  0.29839625  0.72284396  0.60958220     0.09700
C424        C  0.32499095  0.72001593  0.61076432     0.20600
C425        C  0.33332022  0.65960864  0.63488514    -0.54200
C426        C  0.32676090  0.67905505  0.60465954     0.09800
C427        C  0.03045067  0.71140414  0.68809797    -0.53800
C428        C  0.02469264  0.73052642  0.65851240     0.10300
H429        H  0.28842805  0.70151910  0.64248988     0.14800
H430        H  0.31968998  0.73590068  0.58634175     0.00600
H431        H  0.33460876  0.63034053  0.63437462     0.15100
H432        H  0.05360129  0.71385862  0.72277136     0.14900
C433        C  0.15777760  0.87957999  0.75035136    -0.05000
C434        C  0.19188664  0.88572714  0.77932393    -0.04900
C435        C  0.20474219  0.92060593  0.78827672    -0.23100
C436        C  0.18372431  0.95005517  0.76833168     0.19100
C437        C  0.14940756  0.94411972  0.73914791     0.16300
C438        C  0.13670828  0.90906660  0.73050600    -0.18100
C439        C  0.12825279  0.97333378  0.71883193    -0.20000
C440        C  0.14087233  0.00812627  0.72735060    -0.12500
C441        C  0.17494501  0.01458401  0.75647847     0.04200
C442        C  0.19632854  0.98528315  0.77694386    -0.24600
H443        H  0.20867961  0.86347738  0.79492951     0.09200
H444        H  0.23109650  0.92450537  0.81065111     0.12800
H445        H  0.11036056  0.90471832  0.70793985     0.12800
H446        H  0.10188927  0.96929483  0.69630521     0.12500
H447        H  0.12382660  0.03012658  0.71117386     0.13100
H448        H  0.22263701  0.98984812  0.79941358     0.15000
C449        C  0.17135190  0.73645850  0.56814034    -0.05000
C450        C  0.19733289  0.72817253  0.61206436    -0.04900
C451        C  0.19194069  0.72473093  0.63694853    -0.23100
C452        C  0.16059608  0.73049482  0.61873057     0.19100
C453        C  0.13393159  0.73771099  0.57414909     0.16300
C454        C  0.13932341  0.73986092  0.54876621    -0.18100
C455        C  0.10286870  0.74469069  0.55655669    -0.20000
C456        C  0.09880658  0.74657995  0.58340805    -0.12500
C457        C  0.12549945  0.74060408  0.62807875     0.04200
C458        C  0.15602569  0.73122721  0.64508976    -0.24600
H459        H  0.22216513  0.72521525  0.62755091     0.09200
H460        H  0.21263192  0.71912077  0.67098819     0.12800
H461        H  0.11922649  0.74656995  0.51501984     0.12800
H462        H  0.08208026  0.75019096  0.52250034     0.12500
H463        H  0.07495509  0.75367065  0.56945436     0.13100
H464        H  0.17682048  0.72679070  0.67950365     0.15000
C465        C  0.14977843  0.15168986  0.92011116    -0.05000
C466        C  0.12262548  0.14962511  0.87431435    -0.04900
C467        C  0.12693795  0.15373339  0.84837279    -0.23100
C468        C  0.15860191  0.15945665  0.86764231     0.19100
C469        C  0.18609822  0.16287854  0.91369506     0.16300
C470        C  0.18146713  0.15948698  0.93977294    -0.18100
C471        C  0.21782462  0.16788258  0.93266418    -0.20000
C472        C  0.22239736  0.16706940  0.90638254    -0.12500
C473        C  0.19527036  0.16203832  0.86066857     0.04200
C474        C  0.16330273  0.15978628  0.84150926    -0.24600
H475        H  0.09789945  0.14414709  0.85835816     0.09200
H476        H  0.10559296  0.15119326  0.81317371     0.12800
H477        H  0.20255714  0.16113758  0.97504037     0.12800
H478        H  0.23922249  0.17082855  0.96783502     0.12500
H479        H  0.24729684  0.16903066  0.92191033     0.13100
H480        H  0.14222347  0.15567768  0.80633965     0.15000
C481        C  0.16941955  0.87789983  0.49319287    -0.05000
C482        C  0.13674279  0.88449200  0.96936406    -0.04900
C483        C  0.12626357  0.91950530  0.96680515    -0.23100
C484        C  0.14855431  0.94906011  0.98816932     0.19100
C485        C  0.18132241  0.94299674  0.51166517     0.16300
C486        C  0.19175427  0.90761311  0.51411336    -0.18100
C487        C  0.20349744  0.97267156  0.53267917    -0.20000
C488        C  0.19295189  0.00769288  0.53015523    -0.12500
C489        C  0.15997287  0.01391742  0.50650183     0.04200
C490        C  0.13810725  0.98437274  0.98576742    -0.24600
H491        H  0.11891425  0.86225499  0.95279042     0.09200
H492        H  0.10069102  0.92343012  0.94821555     0.12800
H493        H  0.21725054  0.90320945  0.53257668     0.12800
H494        H  0.22901205  0.96883115  0.55098113     0.12500
H495        H  0.21063287  0.03004156  0.54640048     0.13100
H496        H  0.11255036  0.98871408  0.96707284     0.15000
C497        C  0.00240617  0.38016037  0.48786717    -0.05000
C498        C  0.30177267  0.38730582  0.45490577    -0.04900
C499        C  0.29070323  0.42251955  0.44986781    -0.23100
C500        C  0.31334805  0.45138063  0.47785980     0.19100
C501        C  0.01422458  0.44460505  0.51085543     0.16300
C502        C  0.02518933  0.40915666  0.51553906    -0.18100
C503        C  0.03691248  0.47337813  0.53890403    -0.20000
C504        C  0.02591129  0.50846806  0.53442743    -0.12500
C505        C  0.99196403  0.51564396  0.50187383     0.04200
C506        C  0.30241586  0.48682220  0.47358597    -0.24600
H507        H  0.28364154  0.36554138  0.43312336     0.09200
H508        H  0.26438777  0.42710952  0.42430440     0.12800
H509        H  0.05142502  0.40408696  0.54119145     0.12800
H510        H  0.06322307  0.46875481  0.56439233     0.12500
H511        H  0.04411123  0.53009224  0.55660041     0.13100
H512        H  0.27618898  0.49196094  0.44817889     0.15000
C513        C  0.98894561  0.65809689  0.92515998    -0.05000
C514        C  0.29600751  0.66554783  0.88093128    -0.04900
C515        C  0.30125573  0.66917393  0.85590223    -0.23100
C516        C  0.33281250  0.66473046  0.87439218     0.19100
C517        C  0.02639042  0.65862706  0.91928627     0.16300
C518        C  0.02105609  0.65595632  0.94464724    -0.18100
C519        C  0.05779232  0.65337167  0.93738401    -0.20000
C520        C  0.06205431  0.65196155  0.91078996    -0.12500
C521        C  0.03514643  0.65649392  0.86578699     0.04200
C522        C  0.33748583  0.66427484  0.84814999    -0.24600
H523        H  0.27107886  0.66763920  0.86529513     0.09200
H524        H  0.28037186  0.67400670  0.82164316     0.12800
H525        H  0.04141375  0.65002241  0.97864437     0.12800
H526        H  0.07877265  0.64884670  0.97171362     0.12500
H527        H  0.08624930  0.64613803  0.92521160     0.13100
H528        H  0.31652966  0.66762107  0.81347542     0.15000
C529        C  0.34325736  0.24572451  0.57662490    -0.05000
C530        C  0.03695881  0.24682743  0.62240141    -0.04900
C531        C  0.03228195  0.24373024  0.64806997    -0.23100
C532        C  0.00037379  0.24020910  0.62858345     0.19100
C533        C  0.30618006  0.23840038  0.58252256     0.16300
C534        C  0.31116161  0.24045982  0.55665870    -0.18100
C535        C  0.27422133  0.23623298  0.56345057    -0.20000
C536        C  0.26966427  0.23764949  0.58978348    -0.12500
C537        C  0.29699324  0.24012904  0.63557390     0.04200
C538        C  0.99561656  0.24023180  0.65465055    -0.24600
H539        H  0.06193270  0.25057452  0.63855254     0.09200
H540        H  0.05361701  0.24522360  0.68327959     0.12800
H541        H  0.29015122  0.23981066  0.52141374     0.12800
H542        H  0.25276357  0.23481038  0.52827313     0.12500
H543        H  0.24475413  0.23757542  0.57436794     0.13100
H544        H  0.01682378  0.24263652  0.68990709     0.15000
C545        C  0.33804726  0.51483011  0.74998167    -0.05000
C546        C  0.30379627  0.50818450  0.71913334    -0.04900
C547        C  0.29116622  0.47334469  0.71076930    -0.23100
C548        C  0.31257110  0.44451639  0.73332214     0.19100
C549        C  0.01371506  0.45095357  0.76450975     0.16300
C550        C  0.02619881  0.48596371  0.77253457    -0.18100
C551        C  0.03518255  0.42225632  0.78723149    -0.20000
C552        C  0.02267324  0.38746344  0.77906104    -0.12500
C553        C  0.32177686  0.38061768  0.74802267     0.04200
C554        C  0.30013868  0.40939357  0.72523729    -0.24600
H555        H  0.28670362  0.52997358  0.70138541     0.09200
H556        H  0.26467450  0.46898336  0.68676323     0.12800
H557        H  0.05265572  0.49076112  0.79658496     0.12800
H558        H  0.06166952  0.42668591  0.81126053     0.12500
H559        H  0.03988780  0.36579497  0.79695835     0.13100
H560        H  0.27369377  0.40445635  0.70109981     0.15000
C561        C  0.49133544  0.70957594  0.32664524     0.86700
C562        C  0.46423706  0.68176336  0.30691243    -0.53500
C563        C  0.46998104  0.66295015  0.33667390     0.09700
C564        C  0.50326122  0.67304374  0.38428135     0.20600
C565        C  0.49594240  0.73323746  0.36040591    -0.54200
C566        C  0.50218009  0.71412099  0.39056731     0.11400
C567        C  0.52289770  0.68811480  0.35433812    -0.53800
C568        C  0.52954544  0.66917673  0.38498813     0.10300
H569        H  0.44091972  0.67954980  0.27233322     0.14800
H570        H  0.50843212  0.65741952  0.40875971     0.00600
H571        H  0.49504291  0.76253225  0.36100232     0.15100
H572        H  0.53948736  0.68941088  0.35162353     0.14900
O573        O  0.57307963  0.26946961  0.20928818    -0.57600
C574        C  0.64193694  0.34380512  0.23811062     0.75100
O575        O  0.31110157  0.21561141  0.26383826    -0.58700
C576        C  0.55376201  0.24933915  0.17435830     0.75000
C577        C  0.62576861  0.24651744  0.16352123     0.77400
Cd578      Cd  0.61882446  0.26950191  0.21838498     1.37500
O579        O  0.61138094  0.33595297  0.21045690    -0.57600
O580        O  0.59935318  0.25965887  0.14830508    -0.56400
C581        C  0.31583260  0.23088276  0.29410039     0.77400
O582        O  0.31523908  0.24181717  0.20412438    -0.58800
O583        O  0.32792496  0.31766671  0.25719135    -0.57200
O584        O  0.56238636  0.24265169  0.15613696    -0.57200
O585        O  0.64329773  0.26422739  0.29135968    -0.56400
O586        O  0.38141357  0.55914896  0.28407601    -0.57600
C587        C  0.44178931  0.64476016  0.32307645     0.75100
O588        O  0.68403938  0.67821854  0.23300212    -0.58700
C589        C  0.35097883  0.55255931  0.25902020     0.75000
C590        C  0.70483966  0.64878254  0.33644793     0.77400
Cd591      Cd  0.37648876  0.62561464  0.27949904     1.37500
O592        O  0.42346283  0.62198868  0.29051922    -0.57600
O593        O  0.39593661  0.63177249  0.34945670    -0.56400
C594        C  0.67957425  0.66249477  0.20313085     0.77400
O595        O  0.68301800  0.65711380  0.29697029    -0.58800
O596        O  0.43206011  0.65493491  0.33931280    -0.57200
O597        O  0.66582723  0.57953657  0.24264409    -0.57200
O598        O  0.35223156  0.62917135  0.20633961    -0.56400
O599        O  0.61748289  0.56134044  0.47076150    -0.57600
C600        C  0.56232735  0.65362792  0.42039829     0.75100
O601        O  0.32070038  0.67843851  0.04544096    -0.58700
C602        C  0.31444963  0.55312730  0.99695746     0.75000
C603        C  0.31465577  0.64877251  0.44858182     0.77400
Cd604      Cd  0.62879901  0.62818946  0.48787444     1.37500
O605        O  0.56763190  0.62674437  0.44065217    -0.57600
O606        O  0.61947042  0.63711545  0.42738563    -0.56400
C607        C  0.31811854  0.66187803  0.06642080     0.77400
O608        O  0.33583534  0.65139748  0.48995896    -0.58800
O609        O  0.58707723  0.66762262  0.43216838    -0.57200
O610        O  0.33516474  0.57934905  0.01914240    -0.57200
O611        O  0.63987342  0.62985014  0.05220896    -0.56400
O612        O  0.42851522  0.26719705  0.05605037    -0.57600
C613        C  0.34668730  0.34194754  0.99416853     0.75100
O614        O  0.67408171  0.21688617  0.45131610    -0.58700
C615        C  0.43347355  0.24035090  0.07609442     0.75000
C616        C  0.34927323  0.25239310  0.05118043     0.77400
Cd617      Cd  0.36717975  0.26732149  0.00896825     1.37500
O618        O  0.37702327  0.33425198  0.02165995    -0.57600
O619        O  0.37530983  0.26937731  0.06943179    -0.56400
C620        C  0.67778580  0.23228447  0.43092609     0.77400
O621        O  0.66301235  0.24200829  0.01111185    -0.58800
O622        O  0.65998516  0.31580236  0.47285867    -0.57200
O623        O  0.40855172  0.22712997  0.06446134    -0.57200
O624        O  0.35740041  0.26375992  0.44565054    -0.56400
C625        C  0.50401034  0.18367269  0.16975115     0.86700
C626        C  0.47247441  0.20525829  0.14176089    -0.53500
C627        C  0.46604080  0.22408141  0.11119940     0.09700
C628        C  0.49251263  0.21985173  0.11222415     0.20600
C629        C  0.49955430  0.15976585  0.13630864    -0.54200
C630        C  0.49346629  0.17864968  0.10613314     0.09800
C631        C  0.53117947  0.21131474  0.18959351    -0.53800
C632        C  0.52568961  0.22997743  0.15998087     0.10300
H633        H  0.45584914  0.20431939  0.14443999     0.14800
H634        H  0.48756067  0.23524188  0.08777754     0.00600
H635        H  0.50020323  0.13045734  0.13572834     0.15100
H636        H  0.55426599  0.21381291  0.22430644     0.14900
O637        O  0.45217560  0.05885420  0.47855971    -0.57600
C638        C  0.39539695  0.15339307  0.42268212     0.75100
O639        O  0.48976205  0.17541572  0.04920668    -0.58700
C640        C  0.48250336  0.05169629  0.00244623     0.75000
C641        C  0.47742398  0.14301193  0.44580829     0.77400
Cd642      Cd  0.46132481  0.12600331  0.48954836     1.37500
O643        O  0.39971338  0.12445755  0.43966760    -0.57600
O644        O  0.45128975  0.12629390  0.42761187    -0.56400
C645        C  0.48447786  0.16069029  0.06814870     0.77400
O646        O  0.49784242  0.15199800  0.48637447    -0.58800
O647        O  0.42086479  0.16871921  0.43741714    -0.57200
O648        O  0.50246938  0.07855230  0.02145922    -0.57200
O649        O  0.47004726  0.12994886  0.05203029    -0.56400
O650        O  0.59390435  0.76594770  0.05439945    -0.57600
C651        C  0.51359052  0.84017888  0.49713979     0.75100
O652        O  0.50768635  0.71505124  0.44900195    -0.58700
C653        C  0.59908176  0.73895804  0.07440481     0.75000
C654        C  0.51207180  0.74522852  0.04450527     0.77400
Cd655      Cd  0.53262040  0.76518077  0.00666462     1.37500
O656        O  0.54368721  0.83239843  0.02082954    -0.57600
O657        O  0.54018957  0.75877852  0.06616540    -0.56400
C658        C  0.51050117  0.73158148  0.42825613     0.77400
O659        O  0.49195567  0.74048235  0.00341155    -0.58800
O660        O  0.49322177  0.81369929  0.47761179    -0.57200
O661        O  0.57427380  0.72531075  0.06275740    -0.57200
O662        O  0.52189715  0.76367941  0.44238120    -0.56400
C663        C  0.65807248  0.20999143  0.32909921     0.86700
C664        C  0.63103133  0.18203998  0.30917072    -0.53500
C665        C  0.63655698  0.16326881  0.33879093     0.09700
C666        C  0.33641789  0.17335624  0.38651407     0.20600
C667        C  0.32907267  0.23353978  0.36262367    -0.54200
C668        C  0.33534159  0.21444840  0.39280097     0.09800
C669        C  0.35644321  0.18865857  0.35710033    -0.53800
C670        C  0.36284932  0.16951434  0.38746431     0.10300
H671        H  0.60783163  0.17979233  0.27451780     0.14800
H672        H  0.34149781  0.15774341  0.41093132     0.00600
H673        H  0.32830869  0.26284551  0.36333721     0.15100
H674        H  0.37317327  0.18997352  0.35462590     0.14900
O675        O  0.55189909  0.06045655  0.29391322    -0.57600
C676        C  0.60820332  0.14509822  0.32482509     0.75100
O677        O  0.51811123  0.17968594  0.23540306    -0.58700
C678        C  0.52138666  0.05204241  0.26546659     0.75000
C679        C  0.53373227  0.15312496  0.33348702     0.77400
Cd680      Cd  0.54298383  0.12669959  0.28166704     1.37500
O681        O  0.58864932  0.12441622  0.29038113    -0.57600
O682        O  0.56160540  0.14376627  0.35047252    -0.56400
C683        C  0.51277129  0.16350568  0.20499766     0.77400
O684        O  0.51032058  0.15293532  0.29213916    -0.58800
O685        O  0.59966317  0.15334854  0.34295015    -0.57200
O686        O  0.50175765  0.07768694  0.24469182    -0.57200
O687        O  0.51790926  0.12998091  0.20788856    -0.56400
O688        O  0.40541435  0.77061843  0.20650220    -0.57600
C689        C  0.47786500  0.84250354  0.23994478     0.75100
O690        O  0.47601495  0.71460605  0.26007454    -0.58700
C691        C  0.38625587  0.74962662  0.17229306     0.75000
C692        C  0.45565445  0.74845754  0.15733110     0.77400
Cd693      Cd  0.45163472  0.76914710  0.21590679     1.37500
O694        O  0.44725695  0.83594131  0.21385520    -0.57600
O695        O  0.43241264  0.76699477  0.14595427    -0.56400
C696        C  0.48243656  0.73027767  0.29155672     0.77400
O697        O  0.47688029  0.73800602  0.19591414    -0.58800
O698        O  0.49614548  0.81535405  0.25572619    -0.57200
O699        O  0.39516322  0.74166553  0.15461179    -0.57200
O700        O  0.47834149  0.76399532  0.29009439    -0.56400
C701        C  0.67059992  0.68306121  0.16799362     0.86700
C702        C  0.63856635  0.70367717  0.13983456    -0.53500
C703        C  0.63180607  0.72302655  0.10936995     0.09700
C704        C  0.65837206  0.72015038  0.11048948     0.20600
C705        C  0.66673833  0.65978087  0.13472877    -0.54200
C706        C  0.66016060  0.67917061  0.10445350     0.09800
C707        C  0.36388741  0.71162370  0.18785990    -0.53800
C708        C  0.35808635  0.73071019  0.15822236     0.10300
H709        H  0.62193717  0.70181717  0.14242906     0.14800
H710        H  0.65304636  0.73599138  0.08602309     0.00600
H711        H  0.66804996  0.63051454  0.13428494     0.15100
H712        H  0.38704787  0.71411804  0.22252520     0.14900
C713        C  0.49157549  0.87969487  0.25078285    -0.05000
C714        C  0.52572806  0.88584246  0.28006470    -0.04900
C715        C  0.53862614  0.92072029  0.28909873    -0.23100
C716        C  0.51760250  0.95015189  0.26890247     0.19100
C717        C  0.48324647  0.94419930  0.23941588     0.16300
C718        C  0.47051345  0.90916676  0.23072178    -0.18100
C719        C  0.46207251  0.97336837  0.21882225    -0.20000
C720        C  0.47470234  0.00813730  0.22732596    -0.12500
C721        C  0.50880606  0.01462069  0.25672983     0.04200
C722        C  0.53022422  0.98537257  0.27752395    -0.24600
H723        H  0.54251727  0.86359789  0.29584769     0.09200
H724        H  0.56501179  0.92462879  0.31171024     0.12800
H725        H  0.44413491  0.90481823  0.20791846     0.12800
H726        H  0.43568137  0.96930881  0.19606930     0.12500
H727        H  0.45763287  0.03010147  0.21091290     0.13100
H728        H  0.55655947  0.98996774  0.30022171     0.15000
C729        C  0.50406737  0.73624411  0.06728972    -0.05000
C730        C  0.52989036  0.72733370  0.11098921    -0.04900
C731        C  0.52446972  0.72393634  0.13584450    -0.23100
C732        C  0.49326973  0.73036327  0.11784010     0.19100
C733        C  0.46673148  0.73819707  0.07345391     0.16300
C734        C  0.47212912  0.74030667  0.04806955    -0.18100
C735        C  0.43583295  0.74582196  0.05610613    -0.20000
C736        C  0.43185281  0.74773290  0.08304805    -0.12500
C737        C  0.45845418  0.74115797  0.12755319     0.04200
C738        C  0.48876515  0.73114280  0.14426926    -0.24600
H739        H  0.55464580  0.72387736  0.12634906     0.09200
H740        H  0.54505963  0.71784846  0.16973188     0.12800
H741        H  0.45216186  0.74751158  0.01450540     0.12800
H742        H  0.41513835  0.75180007  0.02220115     0.12500
H743        H  0.40815693  0.75531129  0.06931326     0.13100
H744        H  0.50948625  0.72622480  0.17855130     0.15000
C745        C  0.48288364  0.15100393  0.41987103    -0.05000
C746        C  0.45575872  0.14873278  0.37406504    -0.04900
C747        C  0.46010989  0.15263617  0.34813372    -0.23100
C748        C  0.49178239  0.15837543  0.36743039     0.19100
C749        C  0.51924671  0.16193903  0.41348325     0.16300
C750        C  0.51457710  0.15874170  0.43953703    -0.18100
C751        C  0.55098504  0.16694495  0.43249858    -0.20000
C752        C  0.55560006  0.16613168  0.40626803    -0.12500
C753        C  0.52850478  0.16108611  0.36055276     0.04200
C754        C  0.49652555  0.15867101  0.34134034    -0.24600
H755        H  0.43102876  0.14326821  0.35810143     0.09200
H756        H  0.43878873  0.14997218  0.31293378     0.12800
H757        H  0.53564496  0.16052984  0.47480926     0.12800
H758        H  0.57235786  0.16996540  0.46767132     0.12500
H759        H  0.58050788  0.16818121  0.42183677     0.13100
H760        H  0.47547420  0.15451495  0.30617053     0.15000
C761        C  0.50311783  0.87810201  0.99341363    -0.05000
C762        C  0.46976591  0.88422363  0.46942940    -0.04900
C763        C  0.45926536  0.91923418  0.46687053    -0.23100
C764        C  0.48148398  0.94884052  0.48795772     0.19100
C765        C  0.51511700  0.94317752  0.01214584     0.16300
C766        C  0.52553589  0.90777417  0.01460386    -0.18100
C767        C  0.53734397  0.97283509  0.03339899    -0.20000
C768        C  0.52678304  0.00786628  0.03083287    -0.12500
C769        C  0.49374357  0.01410431  0.00691256     0.04200
C770        C  0.47103933  0.98416310  0.48556791    -0.24600
H771        H  0.45200713  0.86194321  0.45308604     0.09200
H772        H  0.43373958  0.92311712  0.44850320     0.12800
H773        H  0.55107360  0.90332234  0.03327833     0.12800
H774        H  0.56290423  0.96897453  0.05190809     0.12500
H775        H  0.54449433  0.03020706  0.04724965     0.13100
H776        H  0.44552768  0.98849144  0.46707967     0.15000
C777        C  0.33541863  0.37975492  0.98774630    -0.05000
C778        C  0.63479157  0.38694754  0.95506483    -0.04900
C779        C  0.62381148  0.42221198  0.95004723    -0.23100
C780        C  0.64654280  0.45107274  0.97778792     0.19100
C781        C  0.34740684  0.44423766  0.01053037     0.16300
C782        C  0.35827704  0.40874155  0.01519531    -0.18100
C783        C  0.37018212  0.47300536  0.03833685    -0.20000
C784        C  0.35927823  0.50815172  0.03387489    -0.12500
C785        C  0.32534292  0.51539022  0.00157679     0.04200
C786        C  0.63571087  0.48657200  0.97351991    -0.24600
H787        H  0.61660417  0.36519027  0.93347011     0.09200
H788        H  0.59750152  0.42684647  0.92468792     0.12800
H789        H  0.38451006  0.40363568  0.04064153     0.12800
H790        H  0.39648603  0.46833336  0.06362817     0.12500
H791        H  0.37754175  0.52976708  0.05586635     0.13100
H792        H  0.60949054  0.49175318  0.94831377     0.15000
C793        C  0.32196893  0.65780633  0.42500096    -0.05000
C794        C  0.62898908  0.66518497  0.38075429    -0.04900
C795        C  0.63419167  0.66881368  0.35567484    -0.23100
C796        C  0.66574455  0.66443885  0.37413293     0.19100
C797        C  0.35935010  0.65835307  0.41903028     0.16300
C798        C  0.35406163  0.65568578  0.44444003    -0.18100
C799        C  0.39074424  0.65314287  0.43709869    -0.20000
C800        C  0.39499073  0.65182053  0.41049295    -0.12500
C801        C  0.36807799  0.65640250  0.36550458     0.04200
C802        C  0.67040162  0.66407120  0.34787311    -0.24600
H803        H  0.60407038  0.66724840  0.36515674     0.09200
H804        H  0.61328314  0.67362062  0.32141298     0.12800
H805        H  0.37444662  0.64979444  0.47844873     0.12800
H806        H  0.41173994  0.64861522  0.47142428     0.12500
H807        H  0.41919205  0.64606550  0.42490459     0.13100
H808        H  0.64943718  0.66743121  0.31320339     0.15000
C809        C  0.67649869  0.24559726  0.07666189    -0.05000
C810        C  0.37017139  0.24756280  0.12247110    -0.04900
C811        C  0.36554845  0.24455213  0.14819950    -0.23100
C812        C  0.33370955  0.24021611  0.12873288     0.19100
C813        C  0.63954725  0.23752998  0.08266023     0.16300
C814        C  0.64449436  0.23955119  0.05674940    -0.18100
C815        C  0.60762728  0.23452558  0.06359902    -0.20000
C816        C  0.60304636  0.23601112  0.08991513    -0.12500
C817        C  0.63034053  0.23939195  0.13569965     0.04200
C818        C  0.32896173  0.24029220  0.15480571    -0.24600
H819        H  0.39508218  0.25191580  0.13860562     0.09200
H820        H  0.38685247  0.24672618  0.18341748     0.12800
H821        H  0.62349735  0.23822077  0.02147406     0.12800
H822        H  0.58618947  0.23241150  0.02841293     0.12500
H823        H  0.57813454  0.23531625  0.07447718     0.13100
H824        H  0.35013002  0.24339763  0.19004260     0.15000
C825        C  0.67100321  0.51550313  0.24969836    -0.05000
C826        C  0.63674807  0.50886936  0.21883607    -0.04900
C827        C  0.62410022  0.47401485  0.21040530    -0.23100
C828        C  0.64549064  0.44515763  0.23289408     0.19100
C829        C  0.34663785  0.45160465  0.26413336     0.16300
C830        C  0.35913711  0.48662583  0.27224373    -0.18100
C831        C  0.36810085  0.42289777  0.28679263    -0.20000
C832        C  0.35558980  0.38807638  0.27849312    -0.12500
C833        C  0.65469189  0.38119810  0.24740044     0.04200
C834        C  0.63305034  0.40999463  0.22468764    -0.24600
H835        H  0.61966734  0.53067109  0.20110713     0.09200
H836        H  0.59760598  0.46965826  0.18637075     0.12800
H837        H  0.38559745  0.49141331  0.29632025     0.12800
H838        H  0.39459012  0.42733869  0.31086410     0.12500
H839        H  0.37281292  0.36640935  0.29635674     0.13100
H840        H  0.60660561  0.40504264  0.20052100     0.15000
C841        C  0.49133001  0.70929648  0.82662839     0.86700
C842        C  0.46428105  0.68143023  0.80691380    -0.53500
C843        C  0.47004880  0.66260281  0.83668505     0.09700
C844        C  0.50331757  0.67275263  0.88430637     0.20600
C845        C  0.49588237  0.73294214  0.86034360    -0.54200
C846        C  0.50215433  0.71383337  0.89053351     0.11400
C847        C  0.52291724  0.68789657  0.85433327    -0.53800
C848        C  0.52961186  0.66895069  0.88501344     0.10300
H849        H  0.44098125  0.67916776  0.77232383     0.14800
H850        H  0.50851024  0.65712755  0.90880009     0.00600
H851        H  0.49491689  0.76223263  0.86088486     0.15100
H852        H  0.53947404  0.68921389  0.85156571     0.14900
O853        O  0.57273442  0.27000243  0.70858886    -0.57600
C854        C  0.64230952  0.34327073  0.73873663     0.75100
O855        O  0.31109265  0.21520683  0.76389918    -0.58700
C856        C  0.55387829  0.24900675  0.67436560     0.75000
C857        C  0.62584046  0.24700216  0.66351206     0.77400
Cd858      Cd  0.61897181  0.26913086  0.71859940     1.37500
O859        O  0.61172713  0.33550219  0.71097391    -0.57600
O860        O  0.59963943  0.26056545  0.64859253    -0.56400
C861        C  0.31578727  0.23047289  0.79413241     0.77400
O862        O  0.31515572  0.24155536  0.70392446    -0.58800
O863        O  0.32825810  0.31709875  0.75785699    -0.57200
O864        O  0.56301206  0.24129962  0.65691855    -0.57200
O865        O  0.64331511  0.26383070  0.79145187    -0.56400
O866        O  0.38173456  0.55856234  0.78435184    -0.57600
C867        C  0.44189674  0.64421129  0.82302001     0.75100
O868        O  0.68398786  0.67775446  0.73320589    -0.58700
C869        C  0.35131390  0.55190712  0.75930315     0.75000
C870        C  0.70518736  0.64865920  0.83669752     0.77400
Cd871      Cd  0.37666118  0.62505313  0.77966041     1.37500
O872        O  0.42315911  0.62217974  0.78975560    -0.57600
O873        O  0.39632925  0.63171221  0.84977233    -0.56400
C874        C  0.67950959  0.66214829  0.70327980     0.77400
O875        O  0.68324846  0.65670363  0.79711216    -0.58800
O876        O  0.43261712  0.65353779  0.84000583    -0.57200
O877        O  0.66612719  0.57884933  0.74293452    -0.57200
O878        O  0.35227345  0.62885472  0.70646642    -0.56400
O879        O  0.61763196  0.56117768  0.97068063    -0.57600
C880        C  0.56239983  0.65334423  0.92032117     0.75100
O881        O  0.32049636  0.67849889  0.54554808    -0.58700
C882        C  0.31432864  0.55334271  0.49718952     0.75000
C883        C  0.31489949  0.64896678  0.94864921     0.77400
Cd884      Cd  0.62897451  0.62804396  0.98779954     1.37500
O885        O  0.56785685  0.62681715  0.94107584    -0.57600
O886        O  0.61965402  0.63745821  0.92736888    -0.56400
C887        C  0.31800133  0.66184354  0.56656972     0.77400
O888        O  0.33608676  0.65132431  0.99002805    -0.58800
O889        O  0.58702005  0.66695579  0.93150790    -0.57200
O890        O  0.33501809  0.57958614  0.51945536    -0.57200
O891        O  0.63978446  0.62980528  0.55233836    -0.56400
O892        O  0.42875170  0.26730554  0.55616791    -0.57600
C893        C  0.34704806  0.34236664  0.49436608     0.75100
O894        O  0.67391864  0.21644346  0.95122651    -0.58700
C895        C  0.43363712  0.24053989  0.57625397     0.75000
C896        C  0.34944135  0.25266162  0.55125909     0.77400
Cd897      Cd  0.36744220  0.26770462  0.50916038     1.37500
O898        O  0.37739546  0.33466277  0.52209398    -0.57600
O899        O  0.37557170  0.26952052  0.56966812    -0.56400
C900        C  0.67757788  0.23186750  0.93080113     0.77400
O901        O  0.66314164  0.24251620  0.51112101    -0.58800
O902        O  0.65962756  0.31537484  0.97283112    -0.57200
O903        O  0.40869270  0.22749437  0.56467940    -0.57200
O904        O  0.35707639  0.26339745  0.94542663    -0.56400
C905        C  0.50401141  0.18368840  0.66983735     0.86700
C906        C  0.47252720  0.20536827  0.64186988    -0.53500
C907        C  0.46614055  0.22415193  0.61132094     0.09700
C908        C  0.49258695  0.21978263  0.61232081     0.20600
C909        C  0.49949856  0.15972857  0.63636928    -0.54200
C910        C  0.49345072  0.17856879  0.60620064     0.09800
C911        C  0.53124357  0.21124649  0.68969051    -0.53800
C912        C  0.52577337  0.22986017  0.66006628     0.10300
H913        H  0.45590644  0.20453120  0.64456382     0.14800
H914        H  0.48767081  0.23514609  0.58788633     0.00600
H915        H  0.50008711  0.13041798  0.63577323     0.15100
H916        H  0.55435037  0.21370742  0.72439371     0.14900
O917        O  0.45252001  0.05895276  0.97872960    -0.57600
C918        C  0.39538798  0.15312596  0.92267617     0.75100
O919        O  0.48957467  0.17536526  0.54911660    -0.58700
C920        C  0.48212678  0.05153047  0.50214503     0.75000
C921        C  0.47765709  0.14344368  0.94600221     0.77400
Cd922      Cd  0.46148638  0.12608715  0.98960438     1.37500
O923        O  0.39985415  0.12423498  0.93982031    -0.57600
O924        O  0.45155372  0.12659905  0.92774456    -0.56400
C925        C  0.48444912  0.16058082  0.56821068     0.77400
O926        O  0.49802963  0.15235735  0.98657224    -0.58800
O927        O  0.42077428  0.16852628  0.93725070    -0.57200
O928        O  0.50213680  0.07834589  0.52114631    -0.57200
O929        O  0.47014956  0.12976712  0.55222255    -0.56400
O930        O  0.59400163  0.76607948  0.55501863    -0.57600
C931        C  0.51387209  0.84033902  0.99732139     0.75100
O932        O  0.50796532  0.71476273  0.94925131    -0.58700
C933        C  0.59901901  0.73875867  0.57453246     0.75000
C934        C  0.51251051  0.74538894  0.54513406     0.77400
Cd935      Cd  0.53265755  0.76516260  0.50678217     1.37500
O936        O  0.54342065  0.83236564  0.52057743    -0.57600
O937        O  0.54049715  0.75919385  0.56656085    -0.56400
C938        C  0.51043408  0.73135326  0.92817888     0.77400
O939        O  0.49234587  0.74033462  0.50404963    -0.58800
O940        O  0.49341576  0.81393731  0.97765368    -0.57200
O941        O  0.57407754  0.72478582  0.56231975    -0.57200
O942        O  0.52145071  0.76359868  0.94193400    -0.56400
C943        C  0.65797196  0.20957398  0.82907153     0.86700
C944        C  0.63093805  0.18161113  0.80912654    -0.53500
C945        C  0.63644844  0.16283375  0.83873616     0.09700
C946        C  0.33632259  0.17292010  0.88647460     0.20600
C947        C  0.32894499  0.23310967  0.86257352    -0.54200
C948        C  0.33520896  0.21401303  0.89274035     0.09800
C949        C  0.35633835  0.18826599  0.85705845    -0.53800
C950        C  0.36276929  0.16911813  0.88743050     0.10300
H951        H  0.60774318  0.17938243  0.77447031     0.14800
H952        H  0.34141281  0.15730007  0.91089499     0.00600
H953        H  0.32815040  0.26241395  0.86326825     0.15100
H954        H  0.37306853  0.18962318  0.85458684     0.14900
O955        O  0.55141055  0.06030940  0.79340179    -0.57600
C956        C  0.60804903  0.14471108  0.82472416     0.75100
O957        O  0.51798297  0.17969670  0.73540070    -0.58700
C958        C  0.52089906  0.05201458  0.76528723     0.75000
C959        C  0.53375907  0.15376449  0.83355635     0.77400
Cd960      Cd  0.54276419  0.12665448  0.78161779     1.37500
O961        O  0.58819149  0.12452264  0.78988840    -0.57600
O962        O  0.56156541  0.14413334  0.85049867    -0.56400
C963        C  0.51270738  0.16352744  0.70504449     0.77400
O964        O  0.51031879  0.15350260  0.79220355    -0.58800
O965        O  0.59978391  0.15255435  0.84325435    -0.57200
O966        O  0.50133629  0.07777918  0.74491855    -0.57200
O967        O  0.51783396  0.13000053  0.70793604    -0.56400
O968        O  0.40571505  0.76988412  0.70727060    -0.57600
C969        C  0.47748120  0.84236247  0.73963511     0.75100
O970        O  0.47580494  0.71429739  0.75991801    -0.58700
C971        C  0.38621442  0.74944288  0.67261575     0.75000
C972        C  0.45584688  0.74792953  0.65766156     0.77400
Cd973      Cd  0.45152535  0.76889584  0.71590254     1.37500
O974        O  0.44690898  0.83571183  0.71369847    -0.57600
O975        O  0.43234483  0.76614163  0.64593467    -0.56400
C976        C  0.48241535  0.72999491  0.79153521     0.77400
O977        O  0.47715781  0.73785291  0.69641104    -0.58800
O978        O  0.49581879  0.81526658  0.75538773    -0.57200
O979        O  0.39474560  0.74204423  0.65437942    -0.57200
O980        O  0.47849969  0.76374481  0.79021484    -0.56400
C981        C  0.67048968  0.68282121  0.66816181     0.86700
C982        C  0.63843807  0.70343372  0.63998119    -0.53500
C983        C  0.63172955  0.72284397  0.60958213     0.09700
C984        C  0.65832430  0.72001592  0.61076433     0.20600
C985        C  0.66665360  0.65960865  0.63488522    -0.54200
C986        C  0.66009428  0.67905503  0.60465961     0.09800
C987        C  0.36378401  0.71140412  0.68809797    -0.53800
C988        C  0.35802598  0.73052644  0.65851241     0.10300
H989        H  0.62176130  0.70151903  0.64248968     0.14800
H990        H  0.65302338  0.73590064  0.58634178     0.00600
H991        H  0.66794210  0.63034054  0.63437470     0.15100
H992        H  0.38693465  0.71385854  0.72277134     0.14900
C993        C  0.49111091  0.87957997  0.75035135    -0.05000
C994        C  0.52521996  0.88572706  0.77932391    -0.04900
C995        C  0.53807554  0.92060587  0.78827670    -0.23100
C996        C  0.51705765  0.95005513  0.76833168     0.19100
C997        C  0.48274092  0.94411971  0.73914794     0.16300
C998        C  0.47004160  0.90906660  0.73050602    -0.18100
C999        C  0.46158612  0.97333378  0.71883193    -0.20000
C1000       C  0.47420569  0.00812626  0.72735057    -0.12500
C1001       C  0.50827836  0.01458399  0.75647844     0.04200
C1002       C  0.52966193  0.98528313  0.77694388    -0.24600
H1003       H  0.54201288  0.86347733  0.79492942     0.09200
H1004       H  0.56442980  0.92450525  0.81065098     0.12800
H1005       H  0.44369392  0.90471834  0.70793997     0.12800
H1006       H  0.43522268  0.96929488  0.69630533     0.12500
H1007       H  0.45715996  0.03012657  0.71117380     0.13100
H1008       H  0.55597033  0.98984808  0.79941354     0.15000
C1009       C  0.50468529  0.73645842  0.56814036    -0.05000
C1010       C  0.53066630  0.72817235  0.61206438    -0.04900
C1011       C  0.52527406  0.72473090  0.63694855    -0.23100
C1012       C  0.49392945  0.73049483  0.61873058     0.19100
C1013       C  0.46726495  0.73771094  0.57414907     0.16300
C1014       C  0.47265682  0.73986076  0.54876625    -0.18100
C1015       C  0.43620208  0.74469070  0.55655671    -0.20000
C1016       C  0.43213993  0.74657995  0.58340804    -0.12500
C1017       C  0.45883282  0.74060411  0.62807877     0.04200
C1018       C  0.48935906  0.73122725  0.64508977    -0.24600
H1019       H  0.55549844  0.72521501  0.62755085     0.09200
H1020       H  0.54596529  0.71912082  0.67098823     0.12800
H1021       H  0.45255980  0.74656974  0.51501972     0.12800
H1022       H  0.41541363  0.75019095  0.52250034     0.12500
H1023       H  0.40828850  0.75367061  0.56945441     0.13100
H1024       H  0.51015384  0.72679072  0.67950364     0.15000
C1025       C  0.48311170  0.15168961  0.92011103    -0.05000
C1026       C  0.45595870  0.14962465  0.87431416    -0.04900
C1027       C  0.46027115  0.15373311  0.84837256    -0.23100
C1028       C  0.49193511  0.15945657  0.86764209     0.19100
C1029       C  0.51943142  0.16287851  0.91369485     0.16300
C1030       C  0.51480030  0.15948690  0.93977267    -0.18100
C1031       C  0.55115781  0.16788265  0.93266398    -0.20000
C1032       C  0.55573062  0.16706960  0.90638248    -0.12500
C1033       C  0.52860365  0.16203838  0.86066851     0.04200
C1034       C  0.49663601  0.15978627  0.84150914    -0.24600
H1035       H  0.43123281  0.14414654  0.85835808     0.09200
H1036       H  0.43892621  0.15119298  0.81317354     0.12800
H1037       H  0.53589042  0.16113766  0.97504024     0.12800
H1038       H  0.57255574  0.17082867  0.96783497     0.12500
H1039       H  0.58063017  0.16903101  0.92191035     0.13100
H1040       H  0.47555680  0.15567761  0.80633949     0.15000
C1041       C  0.50275282  0.87789983  0.49319277    -0.05000
C1042       C  0.47007609  0.88449201  0.96936409    -0.04900
C1043       C  0.45959689  0.91950528  0.96680524    -0.23100
C1044       C  0.48188761  0.94906009  0.98816933     0.19100
C1045       C  0.51465564  0.94299674  0.51166499     0.16300
C1046       C  0.52508750  0.90761313  0.51411307    -0.18100
C1047       C  0.53683069  0.97267157  0.53267899    -0.20000
C1048       C  0.52628509  0.00769285  0.53015503    -0.12500
C1049       C  0.49330614  0.01391739  0.50650182     0.04200
C1050       C  0.47144057  0.98437270  0.98576751    -0.24600
H1051       H  0.45224754  0.86225496  0.95279054     0.09200
H1052       H  0.43402434  0.92343008  0.94821574     0.12800
H1053       H  0.55058373  0.90320949  0.53257626     0.12800
H1054       H  0.56234520  0.96883119  0.55098081     0.12500
H1055       H  0.54396607  0.03004160  0.54640018     0.13100
H1056       H  0.44588366  0.98871405  0.96707299     0.15000
C1057       C  0.33573949  0.38016037  0.48786706    -0.05000
C1058       C  0.63510593  0.38730579  0.45490572    -0.04900
C1059       C  0.62403650  0.42251957  0.44986760    -0.23100
C1060       C  0.64668135  0.45138064  0.47785967     0.19100
C1061       C  0.34755787  0.44460501  0.51085546     0.16300
C1062       C  0.35852263  0.40915663  0.51553908    -0.18100
C1063       C  0.37024574  0.47337806  0.53890407    -0.20000
C1064       C  0.35924458  0.50846801  0.53442747    -0.12500
C1065       C  0.32529732  0.51564394  0.50187383     0.04200
C1066       C  0.63574919  0.48682222  0.47358588    -0.24600
H1067       H  0.61697481  0.36554136  0.43312339     0.09200
H1068       H  0.59772106  0.42710954  0.42430412     0.12800
H1069       H  0.38475832  0.40408693  0.54119157     0.12800
H1070       H  0.39655635  0.46875469  0.56439244     0.12500
H1071       H  0.37744454  0.53009215  0.55660049     0.13100
H1072       H  0.60952229  0.49196098  0.44817880     0.15000
C1073       C  0.32227893  0.65809691  0.92516003    -0.05000
C1074       C  0.62934078  0.66554784  0.88093127    -0.04900
C1075       C  0.63458901  0.66917395  0.85590222    -0.23100
C1076       C  0.66614576  0.66473045  0.87439211     0.19100
C1077       C  0.35972378  0.65862706  0.91928639     0.16300
C1078       C  0.35438943  0.65595635  0.94464734    -0.18100
C1079       C  0.39112569  0.65337166  0.93738411    -0.20000
C1080       C  0.39538765  0.65196155  0.91079003    -0.12500
C1081       C  0.36847979  0.65649393  0.86578706     0.04200
C1082       C  0.67081906  0.66427481  0.84814985    -0.24600
H1083       H  0.60441222  0.66763921  0.86529523     0.09200
H1084       H  0.61370511  0.67400677  0.82164315     0.12800
H1085       H  0.37474707  0.65002247  0.97864446     0.12800
H1086       H  0.41210603  0.64884671  0.97171371     0.12500
H1087       H  0.41958272  0.64613799  0.92521173     0.13100
H1088       H  0.64986294  0.66762100  0.81347538     0.15000
C1089       C  0.67659070  0.24572451  0.57662490    -0.05000
C1090       C  0.37029215  0.24682740  0.62240140    -0.04900
C1091       C  0.36561530  0.24373025  0.64806997    -0.23100
C1092       C  0.33370714  0.24020905  0.62858344     0.19100
C1093       C  0.63951344  0.23840033  0.58252261     0.16300
C1094       C  0.64449498  0.24045981  0.55665873    -0.18100
C1095       C  0.60755472  0.23623278  0.56345060    -0.20000
C1096       C  0.60299765  0.23764925  0.58978351    -0.12500
C1097       C  0.63032661  0.24012897  0.63557394     0.04200
C1098       C  0.32894991  0.24023180  0.65465054    -0.24600
H1099       H  0.39526601  0.25057441  0.63855250     0.09200
H1100       H  0.38695036  0.24522361  0.68327960     0.12800
H1101       H  0.62348460  0.23981063  0.52141376     0.12800
H1102       H  0.58609697  0.23481011  0.52827314     0.12500
H1103       H  0.57808750  0.23757510  0.57436793     0.13100
H1104       H  0.35015717  0.24263655  0.68990708     0.15000
C1105       C  0.67138058  0.51483010  0.74998160    -0.05000
C1106       C  0.63712960  0.50818452  0.71913341    -0.04900
C1107       C  0.62449959  0.47334472  0.71076950    -0.23100
C1108       C  0.64590444  0.44451640  0.73332222     0.19100
C1109       C  0.34704839  0.45095358  0.76450977     0.16300
C1110       C  0.35953213  0.48596374  0.77253463    -0.18100
C1111       C  0.36851586  0.42225633  0.78723155    -0.20000
C1112       C  0.35600656  0.38746345  0.77906107    -0.12500
C1113       C  0.65511018  0.38061767  0.74802258     0.04200
C1114       C  0.63347199  0.40939358  0.72523732    -0.24600
H1115       H  0.62003696  0.52997359  0.70138555     0.09200
H1116       H  0.59800782  0.46898337  0.68676350     0.12800
H1117       H  0.38598903  0.49076116  0.79658506     0.12800
H1118       H  0.39500284  0.42668590  0.81126066     0.12500
H1119       H  0.37322110  0.36579498  0.79695844     0.13100
H1120       H  0.60702713  0.40445639  0.70109995     0.15000
C1121       C  0.82466885  0.70957597  0.32664527     0.86700
C1122       C  0.79757045  0.68176339  0.30691244    -0.53500
C1123       C  0.80331438  0.66295014  0.33667386     0.09700
C1124       C  0.83659457  0.67304373  0.38428132     0.20600
C1125       C  0.82927584  0.73323747  0.36040599    -0.54200
C1126       C  0.83551351  0.71412096  0.39056737     0.11400
C1127       C  0.85623109  0.68811481  0.35433813    -0.53800
C1128       C  0.86287878  0.66917670  0.38498810     0.10300
H1129       H  0.77425313  0.67954979  0.27233322     0.14800
H1130       H  0.84176550  0.65741951  0.40875973     0.00600
H1131       H  0.82837639  0.76253226  0.36100245     0.15100
H1132       H  0.87282075  0.68941089  0.35162357     0.14900
O1133       O  0.90641296  0.26946963  0.20928826    -0.57600
C1134       C  0.97527026  0.34380521  0.23811059     0.75100
O1135       O  0.64443497  0.21561144  0.26383831    -0.58700
C1136       C  0.88709529  0.24933926  0.17435830     0.75000
C1137       C  0.95910190  0.24651750  0.16352126     0.77400
Cd1138     Cd  0.95215783  0.26950195  0.21838499     1.37500
O1139       O  0.94471427  0.33595298  0.21045696    -0.57600
O1140       O  0.93268641  0.25965884  0.14830502    -0.56400
C1141       C  0.64916589  0.23088274  0.29410037     0.77400
O1142       O  0.64857246  0.24181719  0.20412437    -0.58800
O1143       O  0.66125827  0.31766667  0.25719138    -0.57200
O1144       O  0.89571962  0.24265191  0.15613692    -0.57200
O1145       O  0.97663116  0.26422746  0.29135970    -0.56400
O1146       O  0.71474694  0.55914899  0.28407600    -0.57600
C1147       C  0.77512263  0.64476008  0.32307636     0.75100
O1148       O  0.01737269  0.67821850  0.23300208    -0.58700
C1149       C  0.68431221  0.55255932  0.25902032     0.75000
C1150       C  0.03817303  0.64878249  0.33644794     0.77400
Cd1151     Cd  0.70982214  0.62561462  0.27949907     1.37500
O1152       O  0.75679605  0.62198873  0.29051898    -0.57600
O1153       O  0.72926990  0.63177249  0.34945669    -0.56400
C1154       C  0.01290760  0.66249476  0.20313083     0.77400
O1155       O  0.01635143  0.65711383  0.29697032    -0.58800
O1156       O  0.76539354  0.65493468  0.33931288    -0.57200
O1157       O  0.99916059  0.57953668  0.24264405    -0.57200
O1158       O  0.68556481  0.62917138  0.20633964    -0.56400
O1159       O  0.95081621  0.56134043  0.47076154    -0.57600
C1160       C  0.89566068  0.65362792  0.42039829     0.75100
O1161       O  0.65403395  0.67843853  0.04544124    -0.58700
C1162       C  0.64778309  0.55312731  0.99695756     0.75000
C1163       C  0.64798906  0.64877257  0.44858178     0.77400
Cd1164     Cd  0.96213231  0.62818945  0.48787443     1.37500
O1165       O  0.90096523  0.62674433  0.44065214    -0.57600
O1166       O  0.95280372  0.63711550  0.42738562    -0.56400
C1167       C  0.65145188  0.66187812  0.06642090     0.77400
O1168       O  0.66916868  0.65139769  0.48995892    -0.58800
O1169       O  0.92041057  0.66762268  0.43216843    -0.57200
O1170       O  0.66849818  0.57934908  0.01914246    -0.57200
O1171       O  0.97320687  0.62985010  0.05220901    -0.56400
O1172       O  0.76184850  0.26719704  0.05605037    -0.57600
C1173       C  0.68002060  0.34194753  0.99416845     0.75100
O1174       O  0.00741504  0.21688617  0.45131611    -0.58700
C1175       C  0.76680682  0.24035090  0.07609443     0.75000
C1176       C  0.68260649  0.25239310  0.05118036     0.77400
Cd1177     Cd  0.70051309  0.26732151  0.00896821     1.37500
O1178       O  0.71035656  0.33425195  0.02165983    -0.57600
O1179       O  0.70864309  0.26937731  0.06943175    -0.56400
C1180       C  0.01111913  0.23228449  0.43092610     0.77400
O1181       O  0.99634574  0.24200828  0.01111191    -0.58800
O1182       O  0.99331846  0.31580238  0.47285870    -0.57200
O1183       O  0.74188498  0.22712996  0.06446134    -0.57200
O1184       O  0.69073365  0.26375990  0.44565051    -0.56400
C1185       C  0.83734365  0.18367273  0.16975116     0.86700
C1186       C  0.80580771  0.20525829  0.14176090    -0.53500
C1187       C  0.79937408  0.22408142  0.11119939     0.09700
C1188       C  0.82584590  0.21985176  0.11222412     0.20600
C1189       C  0.83288767  0.15976590  0.13630867    -0.54200
C1190       C  0.82679961  0.17864973  0.10613312     0.09800
C1191       C  0.86451276  0.21131482  0.18959351    -0.53800
C1192       C  0.85902288  0.22997750  0.15998084     0.10300
H1193       H  0.78918245  0.20431937  0.14444001     0.14800
H1194       H  0.82089388  0.23524194  0.08777746     0.00600
H1195       H  0.83353665  0.13045741  0.13572842     0.15100
H1196       H  0.88759931  0.21381304  0.22430643     0.14900
O1197       O  0.78550897  0.05885419  0.47855980    -0.57600
C1198       C  0.72873023  0.15339306  0.42268208     0.75100
O1199       O  0.82309521  0.17541581  0.04920650    -0.58700
C1200       C  0.81583670  0.05169630  0.00244631     0.75000
C1201       C  0.81075716  0.14301197  0.44580811     0.77400
Cd1202     Cd  0.79465808  0.12600329  0.48954834     1.37500
O1203       O  0.73304666  0.12445759  0.43966763    -0.57600
O1204       O  0.78462295  0.12629388  0.42761172    -0.56400
C1205       C  0.81781118  0.16069031  0.06814867     0.77400
O1206       O  0.83117559  0.15199803  0.48637430    -0.58800
O1207       O  0.75419807  0.16871917  0.43741707    -0.57200
O1208       O  0.83580271  0.07855230  0.02145927    -0.57200
O1209       O  0.80338070  0.12994881  0.05203040    -0.56400
O1210       O  0.92723772  0.76594766  0.05439944    -0.57600
C1211       C  0.84692388  0.84017889  0.49713985     0.75100
O1212       O  0.84101967  0.71505117  0.44900191    -0.58700
C1213       C  0.93241510  0.73895803  0.07440482     0.75000
C1214       C  0.84540510  0.74522838  0.04450519     0.77400
Cd1215     Cd  0.86595381  0.76518076  0.00666464     1.37500
O1216       O  0.87702067  0.83239846  0.02082974    -0.57600
O1217       O  0.87352289  0.75877835  0.06616541    -0.56400
C1218       C  0.84383456  0.73158141  0.42825616     0.77400
O1219       O  0.82528907  0.74048214  0.00341149    -0.58800
O1220       O  0.82655514  0.81369929  0.47761171    -0.57200
O1221       O  0.90760714  0.72531080  0.06275744    -0.57200
O1222       O  0.85523055  0.76367933  0.44238127    -0.56400
C1223       C  0.99140585  0.20999153  0.32909928     0.86700
C1224       C  0.96436473  0.18204004  0.30917081    -0.53500
C1225       C  0.96989034  0.16326888  0.33879097     0.09700
C1226       C  0.66975117  0.17335617  0.38651403     0.20600
C1227       C  0.66240594  0.23353968  0.36262365    -0.54200
C1228       C  0.66867487  0.21444834  0.39280096     0.09800
C1229       C  0.68977642  0.18865847  0.35710021    -0.53800
C1230       C  0.69618258  0.16951426  0.38746423     0.10300
H1231       H  0.94116504  0.17979240  0.27451787     0.14800
H1232       H  0.67483107  0.15774328  0.41093127     0.00600
H1233       H  0.66164194  0.26284551  0.36333719     0.15100
H1234       H  0.70650653  0.18997344  0.35462578     0.14900
O1235       O  0.88523237  0.06045661  0.29391323    -0.57600
C1236       C  0.94153660  0.14509840  0.32482510     0.75100
O1237       O  0.85144449  0.17968599  0.23540303    -0.58700
C1238       C  0.85471993  0.05204249  0.26546661     0.75000
C1239       C  0.86706557  0.15312496  0.33348698     0.77400
Cd1240     Cd  0.87631719  0.12669975  0.28166705     1.37500
O1241       O  0.92198264  0.12441630  0.29038121    -0.57600
O1242       O  0.89493872  0.14376625  0.35047255    -0.56400
C1243       C  0.84610457  0.16350572  0.20499765     0.77400
O1244       O  0.84365393  0.15293535  0.29213913    -0.58800
O1245       O  0.93299642  0.15334883  0.34295012    -0.57200
O1246       O  0.83509095  0.07768704  0.24469185    -0.57200
O1247       O  0.85124252  0.12998094  0.20788852    -0.56400
O1248       O  0.73874769  0.77061849  0.20650224    -0.57600
C1249       C  0.81119830  0.84250365  0.23994480     0.75100
O1250       O  0.80934841  0.71460612  0.26007462    -0.58700
C1251       C  0.71958918  0.74962669  0.17229310     0.75000
C1252       C  0.78898772  0.74845769  0.15733097     0.77400
Cd1253     Cd  0.78496811  0.76914712  0.21590678     1.37500
O1254       O  0.78059025  0.83594135  0.21385511    -0.57600
O1255       O  0.76574598  0.76699500  0.14595425    -0.56400
C1256       C  0.81576995  0.73027772  0.29155675     0.77400
O1257       O  0.81021355  0.73800605  0.19591393    -0.58800
O1258       O  0.82947882  0.81535419  0.25572628    -0.57200
O1259       O  0.72849652  0.74166558  0.15461182    -0.57200
O1260       O  0.81167476  0.76399535  0.29009436    -0.56400
C1261       C  0.00393324  0.68306121  0.16799359     0.86700
C1262       C  0.97189967  0.70367717  0.13983454    -0.53500
C1263       C  0.96513940  0.72302652  0.10936993     0.09700
C1264       C  0.99170542  0.72015037  0.11048947     0.20600
C1265       C  0.00007167  0.65978088  0.13472874    -0.54200
C1266       C  0.99349400  0.67917060  0.10445351     0.09800
C1267       C  0.69722081  0.71162372  0.18786006    -0.53800
C1268       C  0.69141972  0.73071022  0.15822249     0.10300
H1269       H  0.95527050  0.70181719  0.14242904     0.14800
H1270       H  0.98637976  0.73599137  0.08602315     0.00600
H1271       H  0.00138326  0.63051454  0.13428489     0.15100
H1272       H  0.72038131  0.71411804  0.22252540     0.14900
C1273       C  0.82490879  0.87969498  0.25078294    -0.05000
C1274       C  0.85906135  0.88584253  0.28006472    -0.04900
C1275       C  0.87195943  0.92072033  0.28909866    -0.23100
C1276       C  0.85093578  0.95015197  0.26890246     0.19100
C1277       C  0.81657975  0.94419942  0.23941594     0.16300
C1278       C  0.80384675  0.90916689  0.23072194    -0.18100
C1279       C  0.79540579  0.97336852  0.21882229    -0.20000
C1280       C  0.80803560  0.00813744  0.22732596    -0.12500
C1281       C  0.84213932  0.01462079  0.25672986     0.04200
C1282       C  0.86355748  0.98537265  0.27752396    -0.24600
H1283       H  0.87585056  0.86359792  0.29584774     0.09200
H1284       H  0.89834506  0.92462879  0.31171009     0.12800
H1285       H  0.77746822  0.90481834  0.20791872     0.12800
H1286       H  0.76901465  0.96930897  0.19606934     0.12500
H1287       H  0.79096615  0.03010161  0.21091289     0.13100
H1288       H  0.88989274  0.98996779  0.30022170     0.15000
C1289       C  0.83740057  0.73624401  0.06728956    -0.05000
C1290       C  0.86322349  0.72733345  0.11098897    -0.04900
C1291       C  0.85780292  0.72393608  0.13584432    -0.23100
C1292       C  0.82660295  0.73036312  0.11783996     0.19100
C1293       C  0.80006472  0.73819701  0.07345378     0.16300
C1294       C  0.80546234  0.74030665  0.04806941    -0.18100
C1295       C  0.76916622  0.74582196  0.05610600    -0.20000
C1296       C  0.76518607  0.74773289  0.08304790    -0.12500
C1297       C  0.79178741  0.74115804  0.12755304     0.04200
C1298       C  0.82209838  0.73114275  0.14426913    -0.24600
H1299       H  0.88797898  0.72387702  0.12634881     0.09200
H1300       H  0.87839282  0.71784819  0.16973168     0.12800
H1301       H  0.78549510  0.74751160  0.01450528     0.12800
H1302       H  0.74847162  0.75180011  0.02220103     0.12500
H1303       H  0.74149012  0.75531133  0.06931303     0.13100
H1304       H  0.84281947  0.72622479  0.17855119     0.15000
C1305       C  0.81621688  0.15100407  0.41987092    -0.05000
C1306       C  0.78909195  0.14873285  0.37406490    -0.04900
C1307       C  0.79344323  0.15263637  0.34813370    -0.23100
C1308       C  0.82511569  0.15837564  0.36743033     0.19100
C1309       C  0.85258002  0.16193919  0.41348319     0.16300
C1310       C  0.84791032  0.15874189  0.43953687    -0.18100
C1311       C  0.88431839  0.16694517  0.43249856    -0.20000
C1312       C  0.88893337  0.16613187  0.40626796    -0.12500
C1313       C  0.86183808  0.16108620  0.36055271     0.04200
C1314       C  0.82985882  0.15867124  0.34134022    -0.24600
H1315       H  0.76436210  0.14326814  0.35810133     0.09200
H1316       H  0.77212201  0.14997237  0.31293366     0.12800
H1317       H  0.86897824  0.16053006  0.47480925     0.12800
H1318       H  0.90569115  0.16996568  0.46767120     0.12500
H1319       H  0.91384118  0.16818142  0.42183671     0.13100
H1320       H  0.80880753  0.15451525  0.30617054     0.15000
C1321       C  0.83645121  0.87810200  0.99341368    -0.05000
C1322       C  0.80309921  0.88422362  0.46942944    -0.04900
C1323       C  0.79259868  0.91923419  0.46687056    -0.23100
C1324       C  0.81481731  0.94884053  0.48795767     0.19100
C1325       C  0.84845033  0.94317753  0.01214588     0.16300
C1326       C  0.85886920  0.90777419  0.01460390    -0.18100
C1327       C  0.87067732  0.97283507  0.03339898    -0.20000
C1328       C  0.86011639  0.00786629  0.03083283    -0.12500
C1329       C  0.82707691  0.01410432  0.00691254     0.04200
C1330       C  0.80437270  0.98416312  0.48556787    -0.24600
H1331       H  0.78534041  0.86194321  0.45308608     0.09200
H1332       H  0.76707292  0.92311719  0.44850329     0.12800
H1333       H  0.88440696  0.90332236  0.03327838     0.12800
H1334       H  0.89623755  0.96897446  0.05190809     0.12500
H1335       H  0.87782770  0.03020702  0.04724965     0.13100
H1336       H  0.77886105  0.98849148  0.46707965     0.15000
C1337       C  0.66875197  0.37975490  0.98774632    -0.05000
C1338       C  0.96812492  0.38694758  0.95506502    -0.04900
C1339       C  0.95714479  0.42221199  0.95004731    -0.23100
C1340       C  0.97987610  0.45107277  0.97778793     0.19100
C1341       C  0.68074025  0.44423766  0.01053036     0.16300
C1342       C  0.69161045  0.40874151  0.01519533    -0.18100
C1343       C  0.70351557  0.47300534  0.03833689    -0.20000
C1344       C  0.69261172  0.50815172  0.03387505    -0.12500
C1345       C  0.65867639  0.51539023  0.00157690     0.04200
C1346       C  0.96904414  0.48657204  0.97351991    -0.24600
H1347       H  0.94993746  0.36519020  0.93347030     0.09200
H1348       H  0.93083484  0.42684646  0.92468801     0.12800
H1349       H  0.71784336  0.40363566  0.04064139     0.12800
H1350       H  0.72981948  0.46833331  0.06362819     0.12500
H1351       H  0.71087521  0.52976701  0.05586652     0.13100
H1352       H  0.94282382  0.49175322  0.94831386     0.15000
C1353       C  0.65530216  0.65780625  0.42500083    -0.05000
C1354       C  0.96232248  0.66518497  0.38075435    -0.04900
C1355       C  0.96752504  0.66881370  0.35567485    -0.23100
C1356       C  0.99907795  0.66443888  0.37413298     0.19100
C1357       C  0.69268335  0.65835312  0.41903020     0.16300
C1358       C  0.68739490  0.65568579  0.44443999    -0.18100
C1359       C  0.72407751  0.65314306  0.43709867    -0.20000
C1360       C  0.72832401  0.65182061  0.41049295    -0.12500
C1361       C  0.70141132  0.65640269  0.36550459     0.04200
C1362       C  0.00373500  0.66407117  0.34787313    -0.24600
H1363       H  0.93740372  0.66724842  0.36515672     0.09200
H1364       H  0.94661660  0.67362063  0.32141310     0.12800
H1365       H  0.70777982  0.64979460  0.47844859     0.12800
H1366       H  0.74507320  0.64861550  0.47142428     0.12500
H1367       H  0.75252533  0.64606546  0.42490461     0.13100
H1368       H  0.98277061  0.66743123  0.31320344     0.15000
C1369       C  0.00983211  0.24559730  0.07666200    -0.05000
C1370       C  0.70350462  0.24756279  0.12247096    -0.04900
C1371       C  0.69888175  0.24455212  0.14819943    -0.23100
C1372       C  0.66704283  0.24021610  0.12873278     0.19100
C1373       C  0.97288063  0.23753003  0.08266034     0.16300
C1374       C  0.97782777  0.23955134  0.05674953    -0.18100
C1375       C  0.94096063  0.23452558  0.06359911    -0.20000
C1376       C  0.93637974  0.23601111  0.08991524    -0.12500
C1377       C  0.96367388  0.23939196  0.13569975     0.04200
C1378       C  0.66229502  0.24029218  0.15480562    -0.24600
H1379       H  0.72841538  0.25191580  0.13860545     0.09200
H1380       H  0.72018572  0.24672616  0.18341729     0.12800
H1381       H  0.95683076  0.23822100  0.02147418     0.12800
H1382       H  0.91952289  0.23241155  0.02841313     0.12500
H1383       H  0.91146789  0.23531624  0.07447729     0.13100
H1384       H  0.68346330  0.24339759  0.19004250     0.15000
C1385       C  0.00433649  0.51550325  0.24969841    -0.05000
C1386       C  0.97008130  0.50886955  0.21883608    -0.04900
C1387       C  0.95743349  0.47401497  0.21040531    -0.23100
C1388       C  0.97882390  0.44515775  0.23289407     0.19100
C1389       C  0.67997122  0.45160462  0.26413334     0.16300
C1390       C  0.69247050  0.48662580  0.27224369    -0.18100
C1391       C  0.70143423  0.42289774  0.28679260    -0.20000
C1392       C  0.68892317  0.38807634  0.27849311    -0.12500
C1393       C  0.98802514  0.38119820  0.24740041     0.04200
C1394       C  0.96638361  0.40999474  0.22468766    -0.24600
H1395       H  0.95300064  0.53067115  0.20110719     0.09200
H1396       H  0.93093924  0.46965841  0.18637074     0.12800
H1397       H  0.71893081  0.49141329  0.29632015     0.12800
H1398       H  0.72792345  0.42733866  0.31086404     0.12500
H1399       H  0.70614628  0.36640933  0.29635675     0.13100
H1400       H  0.93993887  0.40504277  0.20052100     0.15000
C1401       C  0.82466337  0.70929652  0.82662837     0.86700
C1402       C  0.79761437  0.68143030  0.80691373    -0.53500
C1403       C  0.80338209  0.66260292  0.83668499     0.09700
C1404       C  0.83665088  0.67275266  0.88430630     0.20600
C1405       C  0.82921577  0.73294217  0.86034361    -0.54200
C1406       C  0.83548773  0.71383339  0.89053351     0.11400
C1407       C  0.85625062  0.68789658  0.85433326    -0.53800
C1408       C  0.86294517  0.66895063  0.88501338     0.10300
H1409       H  0.77431461  0.67916773  0.77232373     0.14800
H1410       H  0.84184352  0.65712754  0.90880000     0.00600
H1411       H  0.82825034  0.76223266  0.86088494     0.15100
H1412       H  0.87280740  0.68921394  0.85156578     0.14900
O1413       O  0.90606778  0.27000243  0.70858893    -0.57600
C1414       C  0.97564282  0.34327074  0.73873671     0.75100
O1415       O  0.64442591  0.21520679  0.76389912    -0.58700
C1416       C  0.88721159  0.24900684  0.67436558     0.75000
C1417       C  0.95917371  0.24700223  0.66351204     0.77400
Cd1418     Cd  0.95230509  0.26913088  0.71859941     1.37500
O1419       O  0.94506043  0.33550222  0.71097395    -0.57600
O1420       O  0.93297274  0.26056565  0.64859257    -0.56400
C1421       C  0.64912063  0.23047289  0.79413242     0.77400
O1422       O  0.64848905  0.24155536  0.70392451    -0.58800
O1423       O  0.66159138  0.31709871  0.75785671    -0.57200
O1424       O  0.89634531  0.24129981  0.65691844    -0.57200
O1425       O  0.97664833  0.26383069  0.79145182    -0.56400
O1426       O  0.71506787  0.55856235  0.78435177    -0.57600
C1427       C  0.77523010  0.64421125  0.82301997     0.75100
O1428       O  0.01732121  0.67775442  0.73320590    -0.58700
C1429       C  0.68464721  0.55190712  0.75930313     0.75000
C1430       C  0.03852074  0.64865918  0.83669751     0.77400
Cd1431     Cd  0.70999447  0.62505312  0.77966041     1.37500
O1432       O  0.75649247  0.62217974  0.78975553    -0.57600
O1433       O  0.72966254  0.63171220  0.84977230    -0.56400
C1434       C  0.01284293  0.66214827  0.70327980     0.77400
O1435       O  0.01658183  0.65670356  0.79711214    -0.58800
O1436       O  0.76595052  0.65353758  0.84000587    -0.57200
O1437       O  0.99946056  0.57884931  0.74293448    -0.57200
O1438       O  0.68560671  0.62885470  0.70646638    -0.56400
O1439       O  0.95096525  0.56117770  0.97068066    -0.57600
C1440       C  0.89573316  0.65334415  0.92032114     0.75100
O1441       O  0.65382962  0.67849888  0.54554807    -0.58700
C1442       C  0.64766204  0.55334271  0.49718949     0.75000
C1443       C  0.64823282  0.64896677  0.94864921     0.77400
Cd1444     Cd  0.96230789  0.62804396  0.98779952     1.37500
O1445       O  0.90119021  0.62681698  0.94107575    -0.57600
O1446       O  0.95298740  0.63745818  0.92736886    -0.56400
C1447       C  0.65133462  0.66184353  0.56656973     0.77400
O1448       O  0.66942013  0.65132428  0.99002804    -0.58800
O1449       O  0.92035338  0.66695581  0.93150795    -0.57200
O1450       O  0.66835151  0.57958614  0.51945535    -0.57200
O1451       O  0.97311787  0.62980529  0.55233838    -0.56400
O1452       O  0.76208493  0.26730554  0.55616783    -0.57600
C1453       C  0.68038139  0.34236664  0.49436608     0.75100
O1454       O  0.00725196  0.21644346  0.95122655    -0.58700
C1455       C  0.76697036  0.24053986  0.57625386     0.75000
C1456       C  0.68277464  0.25266168  0.55125903     0.77400
Cd1457     Cd  0.70077546  0.26770463  0.50916036     1.37500
O1458       O  0.71072881  0.33466280  0.52209396    -0.57600
O1459       O  0.70890494  0.26952065  0.56966799    -0.56400
C1460       C  0.01091123  0.23186750  0.93080120     0.77400
O1461       O  0.99647503  0.24251635  0.51112108    -0.58800
O1462       O  0.99296102  0.31537485  0.97283130    -0.57200
O1463       O  0.74202595  0.22749436  0.56467934    -0.57200
O1464       O  0.69040947  0.26339758  0.94542638    -0.56400
C1465       C  0.83734471  0.18368838  0.66983724     0.86700
C1466       C  0.80586046  0.20536821  0.64186974    -0.53500
C1467       C  0.79947382  0.22415192  0.61132084     0.09700
C1468       C  0.82592024  0.21978271  0.61232073     0.20600
C1469       C  0.83283193  0.15972861  0.63636922    -0.54200
C1470       C  0.82678409  0.17856885  0.60620062     0.09800
C1471       C  0.86457685  0.21124649  0.68969038    -0.53800
C1472       C  0.85910666  0.22986024  0.66006623     0.10300
H1473       H  0.78923967  0.20453101  0.64456362     0.14800
H1474       H  0.82100410  0.23514623  0.58788631     0.00600
H1475       H  0.83342050  0.13041801  0.63577316     0.15100
H1476       H  0.88768374  0.21370741  0.72439366     0.14900
O1477       O  0.78585338  0.05895275  0.97872986    -0.57600
C1478       C  0.72872130  0.15312586  0.92267609     0.75100
O1479       O  0.82290807  0.17536521  0.54911661    -0.58700
C1480       C  0.81546014  0.05153048  0.50214501     0.75000
C1481       C  0.81099051  0.14344375  0.94600231     0.77400
Cd1482     Cd  0.79481978  0.12608717  0.98960455     1.37500
O1483       O  0.73318750  0.12423493  0.93982032    -0.57600
O1484       O  0.78488723  0.12659900  0.92774480    -0.56400
C1485       C  0.81778249  0.16058085  0.56821068     0.77400
O1486       O  0.83136304  0.15235757  0.98657230    -0.58800
O1487       O  0.75410758  0.16852613  0.93725053    -0.57200
O1488       O  0.83547014  0.07834591  0.52114624    -0.57200
O1489       O  0.80348285  0.12976719  0.55222254    -0.56400
O1490       O  0.92733499  0.76607946  0.55501859    -0.57600
C1491       C  0.84720553  0.84033903  0.99732148     0.75100
O1492       O  0.84129874  0.71476273  0.94925132    -0.58700
C1493       C  0.93235234  0.73875873  0.57453249     0.75000
C1494       C  0.84584371  0.74538893  0.54513387     0.77400
Cd1495     Cd  0.86599084  0.76516260  0.50678217     1.37500
O1496       O  0.87675406  0.83236567  0.52057771    -0.57600
O1497       O  0.87383038  0.75919385  0.56656078    -0.56400
C1498       C  0.84376750  0.73135327  0.92817889     0.77400
O1499       O  0.82567915  0.74033461  0.50404946    -0.58800
O1500       O  0.82674921  0.81393730  0.97765368    -0.57200
O1501       O  0.90741085  0.72478602  0.56231985    -0.57200
O1502       O  0.85478413  0.76359867  0.94193401    -0.56400
C1503       C  0.99130530  0.20957402  0.82907159     0.86700
C1504       C  0.96427140  0.18161119  0.80912661    -0.53500
C1505       C  0.96978177  0.16283380  0.83873621     0.09700
C1506       C  0.66965595  0.17292010  0.88647460     0.20600
C1507       C  0.66227840  0.23310968  0.86257356    -0.54200
C1508       C  0.66854234  0.21401304  0.89274036     0.09800
C1509       C  0.68967169  0.18826597  0.85705843    -0.53800
C1510       C  0.69610262  0.16911809  0.88743045     0.10300
H1511       H  0.94107652  0.17938251  0.77447035     0.14800
H1512       H  0.67474624  0.15730005  0.91089504     0.00600
H1513       H  0.66148381  0.26241396  0.86326825     0.15100
H1514       H  0.70640188  0.18962316  0.85458681     0.14900
O1515       O  0.88474375  0.06030956  0.79340176    -0.57600
C1516       C  0.94138234  0.14471111  0.82472417     0.75100
O1517       O  0.85131625  0.17969670  0.73540053    -0.58700
C1518       C  0.85423227  0.05201465  0.76528715     0.75000
C1519       C  0.86709235  0.15376447  0.83355625     0.77400
Cd1520     Cd  0.87609743  0.12665450  0.78161772     1.37500
O1521       O  0.92152485  0.12452265  0.78988842    -0.57600
O1522       O  0.89489864  0.14413310  0.85049851    -0.56400
C1523       C  0.84604073  0.16352743  0.70504439     0.77400
O1524       O  0.84365210  0.15350288  0.79220346    -0.58800
O1525       O  0.93311716  0.15255434  0.84325429    -0.57200
O1526       O  0.83466943  0.07777917  0.74491831    -0.57200
O1527       O  0.85116738  0.13000053  0.70793604    -0.56400
O1528       O  0.73904834  0.76988413  0.70727060    -0.57600
C1529       C  0.81081454  0.84236247  0.73963511     0.75100
O1530       O  0.80913834  0.71429747  0.75991806    -0.58700
C1531       C  0.71954773  0.74944288  0.67261576     0.75000
C1532       C  0.78918012  0.74792959  0.65766141     0.77400
Cd1533     Cd  0.78485862  0.76889585  0.71590251     1.37500
O1534       O  0.78024232  0.83571184  0.71369841    -0.57600
O1535       O  0.76567819  0.76614190  0.64593461    -0.56400
C1536       C  0.81574867  0.72999496  0.79153520     0.77400
O1537       O  0.81049095  0.73785282  0.69641081    -0.58800
O1538       O  0.82915214  0.81526657  0.75538781    -0.57200
O1539       O  0.72807892  0.74204424  0.65437943    -0.57200
O1540       O  0.81183292  0.76374485  0.79021479    -0.56400
C1541       C  0.00382304  0.68282119  0.66816181     0.86700
C1542       C  0.97177148  0.70343374  0.63998127    -0.53500
C1543       C  0.96506288  0.72284397  0.60958215     0.09700
C1544       C  0.99165760  0.72001593  0.61076430     0.20600
C1545       C  0.99998690  0.65960864  0.63488513    -0.54200
C1546       C  0.99342757  0.67905505  0.60465953     0.09800
C1547       C  0.69711731  0.71140416  0.68809797    -0.53800
C1548       C  0.69135931  0.73052643  0.65851241     0.10300
H1549       H  0.95509474  0.70151908  0.64248990     0.14800
H1550       H  0.98635667  0.73590067  0.58634175     0.00600
H1551       H  0.00127541  0.63034053  0.63437458     0.15100
H1552       H  0.72026794  0.71385863  0.72277135     0.14900
C1553       C  0.82444424  0.87957998  0.75035136    -0.05000
C1554       C  0.85855327  0.88572713  0.77932388    -0.04900
C1555       C  0.87140883  0.92060595  0.78827671    -0.23100
C1556       C  0.85039093  0.95005518  0.76833171     0.19100
C1557       C  0.81607420  0.94411973  0.73914801     0.16300
C1558       C  0.80337491  0.90906660  0.73050607    -0.18100
C1559       C  0.79491943  0.97333380  0.71883209    -0.20000
C1560       C  0.80753897  0.00812626  0.72735063    -0.12500
C1561       C  0.84161164  0.01458403  0.75647846     0.04200
C1562       C  0.86299519  0.98528316  0.77694386    -0.24600
H1563       H  0.87534624  0.86347740  0.79492938     0.09200
H1564       H  0.89776310  0.92450538  0.81065102     0.12800
H1565       H  0.77702722  0.90471833  0.70794003     0.12800
H1566       H  0.76855594  0.96929489  0.69630549     0.12500
H1567       H  0.79049322  0.03012655  0.71117381     0.13100
H1568       H  0.88930361  0.98984808  0.79941347     0.15000
C1569       C  0.83801844  0.73645841  0.56814012    -0.05000
C1570       C  0.86399942  0.72817233  0.61206410    -0.04900
C1571       C  0.85860728  0.72473087  0.63694837    -0.23100
C1572       C  0.82726265  0.73049481  0.61873039     0.19100
C1573       C  0.80059817  0.73771103  0.57414893     0.16300
C1574       C  0.80598996  0.73986091  0.54876600    -0.18100
C1575       C  0.76953534  0.74469086  0.55655665    -0.20000
C1576       C  0.76547321  0.74658003  0.58340797    -0.12500
C1577       C  0.79216606  0.74060410  0.62807863     0.04200
C1578       C  0.82269226  0.73122719  0.64508957    -0.24600
H1579       H  0.88883160  0.72521493  0.62755055     0.09200
H1580       H  0.87929845  0.71912079  0.67098793     0.12800
H1581       H  0.78589304  0.74656998  0.51501966     0.12800
H1582       H  0.74874686  0.75019123  0.52250028     0.12500
H1583       H  0.74162171  0.75367074  0.56945433     0.13100
H1584       H  0.84348710  0.72679065  0.67950354     0.15000
C1585       C  0.81644503  0.15168968  0.92011102    -0.05000
C1586       C  0.78929204  0.14962480  0.87431416    -0.04900
C1587       C  0.79360449  0.15373314  0.84837256    -0.23100
C1588       C  0.82526845  0.15945659  0.86764210     0.19100
C1589       C  0.85276477  0.16287853  0.91369487     0.16300
C1590       C  0.84813364  0.15948692  0.93977268    -0.18100
C1591       C  0.88449114  0.16788264  0.93266395    -0.20000
C1592       C  0.88906394  0.16706956  0.90638241    -0.12500
C1593       C  0.86193694  0.16203836  0.86066844     0.04200
C1594       C  0.82996932  0.15978627  0.84150912    -0.24600
H1595       H  0.76456606  0.14414673  0.85835801     0.09200
H1596       H  0.77225956  0.15119295  0.81317354     0.12800
H1597       H  0.86922374  0.16113764  0.97504025     0.12800
H1598       H  0.90588911  0.17082863  0.96783493     0.12500
H1599       H  0.91396340  0.16903090  0.92191017     0.13100
H1600       H  0.80889005  0.15567760  0.80633947     0.15000
C1601       C  0.83608613  0.87789982  0.49319278    -0.05000
C1602       C  0.80340945  0.88449200  0.96936407    -0.04900
C1603       C  0.79293022  0.91950527  0.96680518    -0.23100
C1604       C  0.81522094  0.94906010  0.98816937     0.19100
C1605       C  0.84798897  0.94299674  0.51166497     0.16300
C1606       C  0.85842081  0.90761311  0.51411309    -0.18100
C1607       C  0.87016402  0.97267155  0.53267899    -0.20000
C1608       C  0.85961848  0.00769287  0.53015504    -0.12500
C1609       C  0.82663951  0.01391741  0.50650177     0.04200
C1610       C  0.80477388  0.98437272  0.98576752    -0.24600
H1611       H  0.78558088  0.86225490  0.95279044     0.09200
H1612       H  0.76735761  0.92343008  0.94821555     0.12800
H1613       H  0.88391706  0.90320945  0.53257632     0.12800
H1614       H  0.89567863  0.96883112  0.55098094     0.12500
H1615       H  0.87729945  0.03004156  0.54640018     0.13100
H1616       H  0.77921705  0.98871406  0.96707307     0.15000
C1617       C  0.66907278  0.38016036  0.48786705    -0.05000
C1618       C  0.96843934  0.38730581  0.45490601    -0.04900
C1619       C  0.95736990  0.42251958  0.44986787    -0.23100
C1620       C  0.98001477  0.45138065  0.47785983     0.19100
C1621       C  0.68089117  0.44460502  0.51085532     0.16300
C1622       C  0.69185589  0.40915666  0.51553888    -0.18100
C1623       C  0.70357908  0.47337810  0.53890393    -0.20000
C1624       C  0.69257791  0.50846803  0.53442729    -0.12500
C1625       C  0.65863067  0.51564396  0.50187375     0.04200
C1626       C  0.96908255  0.48682222  0.47358599    -0.24600
H1627       H  0.95030818  0.36554135  0.43312373     0.09200
H1628       H  0.93105449  0.42710954  0.42430451     0.12800
H1629       H  0.71809166  0.40408697  0.54119133     0.12800
H1630       H  0.72988966  0.46875476  0.56439226     0.12500
H1631       H  0.71077790  0.53009226  0.55660031     0.13100
H1632       H  0.94285571  0.49196092  0.44817900     0.15000
C1633       C  0.65561225  0.65809688  0.92516002    -0.05000
C1634       C  0.96267417  0.66554784  0.88093125    -0.04900
C1635       C  0.96792237  0.66917396  0.85590218    -0.23100
C1636       C  0.99947912  0.66473046  0.87439207     0.19100
C1637       C  0.69305707  0.65862706  0.91928632     0.16300
C1638       C  0.68772274  0.65595635  0.94464730    -0.18100
C1639       C  0.72445898  0.65337167  0.93738404    -0.20000
C1640       C  0.72872095  0.65196156  0.91078997    -0.12500
C1641       C  0.70181306  0.65649395  0.86578699     0.04200
C1642       C  0.00415242  0.66427481  0.84814983    -0.24600
H1643       H  0.93774553  0.66763923  0.86529515     0.09200
H1644       H  0.94703848  0.67400678  0.82164312     0.12800
H1645       H  0.70808041  0.65002248  0.97864442     0.12800
H1646       H  0.74543934  0.64884670  0.97171363     0.12500
H1647       H  0.75291594  0.64613804  0.92521158     0.13100
H1648       H  0.98319630  0.66762100  0.81347536     0.15000
C1649       C  0.00992405  0.24572453  0.57662492    -0.05000
C1650       C  0.70362548  0.24682744  0.62240140    -0.04900
C1651       C  0.69894865  0.24373028  0.64807000    -0.23100
C1652       C  0.66704050  0.24020905  0.62858349     0.19100
C1653       C  0.97284672  0.23840050  0.58252257     0.16300
C1654       C  0.97782829  0.24045989  0.55665871    -0.18100
C1655       C  0.94088799  0.23623306  0.56345058    -0.20000
C1656       C  0.93633093  0.23764949  0.58978348    -0.12500
C1657       C  0.96365988  0.24012903  0.63557390     0.04200
C1658       C  0.66228331  0.24023184  0.65465066    -0.24600
H1659       H  0.72859935  0.25057455  0.63855252     0.09200
H1660       H  0.72028369  0.24522372  0.68327961     0.12800
H1661       H  0.95681790  0.23981074  0.52141375     0.12800
H1662       H  0.91943023  0.23481045  0.52827313     0.12500
H1663       H  0.91142076  0.23757541  0.57436791     0.13100
H1664       H  0.68349046  0.24263668  0.68990709     0.15000
C1665       C  0.00471395  0.51483009  0.74998165    -0.05000
C1666       C  0.97046296  0.50818450  0.71913340    -0.04900
C1667       C  0.95783290  0.47334473  0.71076951    -0.23100
C1668       C  0.97923778  0.44451641  0.73332229     0.19100
C1669       C  0.68038172  0.45095358  0.76450969     0.16300
C1670       C  0.69286542  0.48596371  0.77253442    -0.18100
C1671       C  0.70184921  0.42225632  0.78723145    -0.20000
C1672       C  0.68933987  0.38746342  0.77906086    -0.12500
C1673       C  0.98844353  0.38061768  0.74802276     0.04200
C1674       C  0.96680533  0.40939358  0.72523743    -0.24600
H1675       H  0.95337033  0.52997358  0.70138544     0.09200
H1676       H  0.93134119  0.46898342  0.68676356     0.12800
H1677       H  0.71932239  0.49076113  0.79658481     0.12800
H1678       H  0.72833614  0.42668587  0.81126046     0.12500
H1679       H  0.70655443  0.36579493  0.79695813     0.13100
H1680       H  0.94036049  0.40445636  0.70110003     0.15000
loop_ 
_geom_bond_atom_site_label_1 
_geom_bond_atom_site_label_2 
_geom_bond_distance 
_geom_bond_site_symmetry_2 
_ccdc_geom_bond_type 
C1            C2   1.528       .  S
C1            C7   1.525       .  S
C1            C5   1.547       .  S
C1          C136   1.516       .  S
C2            H9   1.087       .  S
C2            C3   1.362       .  D
C3            C4   1.541       .  S
C3           C27   1.469       .  S
C4            C8   1.548       .  S
C4            C6   1.539       .  S
C4           H10   1.111       .  S
C5           H11   1.086       .  S
C5            C6   1.370       .  D
C6           C98   1.483       .  S
C7           H12   1.087       .  S
C7            C8   1.373       .  D
C8           C40   1.476       .  S
O13          C16   1.265       .  A
O13         Cd18   2.444       .  S
C14          O19   1.267       .  A
C14         O583   1.264       .  A
C14         C273   1.482       .  S
O15          C21   1.270       .  A
O15       Cd1138   2.514       .  S
C16          C72   1.468       .  S
C16          O24   1.263       .  A
C17          O20   1.265       .  A
C17         O582   1.271       .  A
C17         C257   1.478       .  S
Cd18         O25   2.463       .  S
Cd18         O24   2.481       .  S
Cd18         O19   2.494       .  S
Cd18         O20   2.449       .  S
Cd18        O575   2.514       .  S
Cd18        O583   2.451       .  S
Cd18        O582   2.470       .  S
C21        C1223   1.516       .  S
C21        O1145   1.264       .  A
O22        C1137   1.271       .  A
O22       Cd1138   2.470       .  S
O23        C1134   1.264       .  A
O23       Cd1138   2.451       .  S
O25         C581   1.264       .  A
O26          C29   1.268       .  A
O26         Cd31   2.479       .  S
C27          O36   1.263       .  A
C27          O32   1.265       .  A
O28          C34   1.269       .  A
O28        Cd591   2.495       .  S
C29        O1157   1.265   1_455  A
C29        C1385   1.482       .  S
C30          O35   1.271       .  A
C30         O593   1.266       .  A
C30         C801   1.481       .  S
Cd31         O38   2.467       .  S
Cd31         O36   2.478       .  S
Cd31         O32   2.461       .  S
Cd31         O33   2.438       .  S
Cd31       O1148   2.495       .  S
Cd31       O1157   2.460   1_455  S
Cd31       O1155   2.483       .  S
O33        C1150   1.266       .  A
C34         C141   1.513       .  S
C34         O598   1.264       .  A
O35        Cd591   2.483       .  S
O37         C589   1.265       .  A
O37        Cd591   2.460       .  S
O38        C1154   1.264       .  A
O39         C882   1.270       .  A
O39         Cd44   2.506       .  S
C40          O49   1.261       .  A
C40          O45   1.271       .  A
O41          C47   1.267       .  A
O41       Cd1444   2.512   1_554  S
C42          O50   1.265   1_656  A
C42        O1439   1.270       .  A
C42         C225   1.486   1_556  S
C43          O48   1.272   1_655  A
C43        O1166   1.263       .  A
C43         C233   1.478       .  S
Cd44         O49   2.398       .  S
Cd44         O45   2.536       .  S
Cd44         O46   2.406       .  S
Cd44        O881   2.511       .  S
Cd44        O331   2.473       .  S
Cd44        O890   2.449       .  S
Cd44        O608   2.518       .  S
O46         C603   1.263       .  A
C47        C1266   1.483       .  S
C47        O1171   1.263       .  A
O48       Cd1164   2.518   1_455  S
O50       Cd1444   2.451   1_454  S
O51         C607   1.263       .  A
O51        Cd324   2.473   1_554  S
O52          C55   1.271       .  A
O52         Cd57   2.546       .  S
C53          O58   1.270   1_556  A
C53        O1462   1.266   1_455  A
C53         C217   1.488       .  S
O54          C60   1.268       .  A
O54        Cd897   2.515       .  S
C55          C67   1.479       .  S
C55          O63   1.261       .  A
C56          O59   1.264       .  A
C56        O1181   1.273   1_455  A
C56        C1369   1.480       .  S
Cd57         O63   2.408       .  S
Cd57         O58   2.498       .  S
Cd57         O59   2.399       .  S
Cd57       O1454   2.515   1_554  S
Cd57        O344   2.461   1_554  S
Cd57       O1462   2.464   1_454  S
Cd57       O1181   2.523   1_455  S
C60         C668   1.483       .  S
C60         O624   1.264       .  A
O61         C616   1.273       .  A
O61        Cd617   2.523       .  S
O62         C893   1.266       .  A
O62        Cd897   2.462       .  S
O64        C1180   1.264       .  A
O64        Cd337   2.462       .  S
C65          C66   1.526       .  S
C65          C71   1.525       .  S
C65          C69   1.545       .  S
C65         C123   1.514       .  S
C66          H73   1.086       .  S
C66          C67   1.373       .  D
C67          C68   1.549       .  S
C68          C72   1.543       .  S
C68          C70   1.541       .  S
C68          H74   1.111       .  S
C69          H75   1.086       .  S
C69          C70   1.369       .  D
C70          C85   1.482       .  S
C71          H76   1.088       .  S
C71          C72   1.361       .  D
O77         C360   1.271       .  A
O77         Cd82   2.503       .  S
C78         C110   1.477       .  S
C78          O87   1.261       .  A
C78          O83   1.271       .  A
O79          C85   1.267       .  A
O79        Cd362   2.510   1_554  S
C80          O88   1.266       .  A
C80         O357   1.270   1_554  A
C80         C209   1.489       .  S
C81          O86   1.273       .  A
C81          O84   1.264       .  A
C81         C185   1.480       .  S
Cd82         O87   2.411       .  S
Cd82         O83   2.534       .  S
Cd82         O86   2.513       .  S
Cd82         O84   2.399       .  S
Cd82        O359   2.510       .  S
Cd82        O369   2.470       .  S
Cd82        O368   2.462       .  S
C85          O89   1.264       .  A
O88        Cd362   2.463   1_554  S
O89        Cd362   2.469   1_554  S
O90          C93   1.270       .  A
O90         Cd95   2.536       .  S
C91         O100   1.265       .  A
C91         O376   1.270       .  A
C91         C481   1.489       .  S
O92          C98   1.267       .  A
O92        Cd375   2.509       .  S
C93         C143   1.478       .  S
C93         O101   1.261       .  A
C94          O99   1.272       .  A
C94          O97   1.264       .  A
C94         C169   1.478       .  S
Cd95        O101   2.414       .  S
Cd95         O96   2.515       .  S
Cd95         O99   2.520       .  S
Cd95         O97   2.410       .  S
Cd95        O372   2.510   1_554  S
Cd95        O382   2.478   1_554  S
Cd95        O380   2.453   1_554  S
O96         C371   1.270   1_554  A
C98         O102   1.263       .  A
O100       Cd375   2.453       .  S
O102       Cd375   2.479       .  S
C103        C104   1.527       .  S
C103        C669   1.527       .  S
C103        C667   1.545       .  S
C103        C581   1.516       .  S
C104        H111   1.087       .  S
C104        C105   1.362       .  D
C105        C666   1.542       .  S
C105        C116   1.469       .  S
C106        C110   1.549       .  S
C106        C108   1.539       .  S
C106       C1225   1.542   1_455  S
C106        H112   1.111       .  S
C107       C1223   1.545       .  S
C107        H113   1.086       .  S
C107        C108   1.369   1_655  D
C108       C1180   1.483       .  S
C109       C1223   1.527   1_455  S
C109        H114   1.086       .  S
C109        C110   1.373       .  D
O115        C118   1.268       .  A
O115       Cd120   2.510       .  S
C116        O125   1.264       .  A
C116        O121   1.265       .  A
O117        C123   1.269       .  A
O117       Cd120   2.504       .  S
C118        O126   1.263       .  A
C118        C161   1.484       .  S
C119        O124   1.269       .  A
C119        O122   1.265       .  A
C119        C193   1.480       .  S
Cd120       O127   2.472       .  S
Cd120       O126   2.444       .  S
Cd120       O125   2.482       .  S
Cd120       O121   2.450       .  S
Cd120       O124   2.479       .  S
Cd120       O122   2.454       .  S
C123        O127   1.264       .  A
O128        C131   1.265       .  A
O128       Cd133   2.462       .  S
C129        O138   1.265       .  A
C129        O134   1.269       .  A
C129        C153   1.484       .  S
O130        C136   1.270       .  A
O130       Cd133   2.511       .  S
C131        C148   1.471       .  S
C131        O139   1.262       .  A
C132        O137   1.272       .  A
C132        O135   1.265       .  A
C132        C177   1.482       .  S
Cd133       O140   2.461       .  S
Cd133       O139   2.487       .  S
Cd133       O138   2.464       .  S
Cd133       O134   2.484       .  S
Cd133       O137   2.485       .  S
Cd133       O135   2.446       .  S
C136        O140   1.264       .  A
C141        C142   1.525       .  S
C141        C145   1.546       .  S
C141        C707   1.527       .  S
C142        H149   1.086       .  S
C142        C143   1.371       .  D
C143        C144   1.549       .  S
C144        C146   1.540       .  S
C144        C708   1.543       .  S
C144        H150   1.111       .  S
C145        H151   1.086       .  S
C145        C146   1.370       .  D
C146        C607   1.483       .  S
C147       C1261   1.527       .  S
C147        H152   1.087       .  S
C147        C148   1.362       .  D
C148       C1264   1.543   1_455  S
C153        C154   1.408       .  A
C153        C158   1.405       .  A
C154        C155   1.400       .  A
C154        H163   1.083       .  S
C155        C156   1.403       .  A
C155        H164   1.084       .  S
C156        C162   1.410       .  A
C156        C157   1.415       .  A
C157        C159   1.400       .  A
C157        C158   1.405       .  A
C158        H165   1.084       .  S
C159        C160   1.395   1_565  A
C159        H166   1.084       .  S
C160        C161   1.407       .  A
C160        H167   1.083       .  S
C161        C162   1.408   1_545  A
C162        H168   1.084       .  S
C169        C170   1.406       .  A
C169        C174   1.406       .  A
C170        C171   1.394       .  A
C170        H179   1.083       .  S
C171        C172   1.399       .  A
C171        H180   1.084       .  S
C172        C178   1.404       .  A
C172        C173   1.416       .  A
C173        C175   1.403       .  A
C173        C174   1.410       .  A
C174        H181   1.084       .  S
C175        C176   1.401       .  A
C175        H182   1.084       .  S
C176        C177   1.408       .  A
C176        H183   1.083       .  S
C177        C178   1.403       .  A
C178        H184   1.084       .  S
C185        C186   1.407       .  A
C185        C190   1.406       .  A
C186        C187   1.393       .  A
C186        H195   1.083       .  S
C187        C188   1.398       .  A
C187        H196   1.084       .  S
C188        C194   1.403       .  A
C188        C189   1.416       .  A
C189        C191   1.403       .  A
C189        C190   1.410       .  A
C190        H197   1.084       .  S
C191        C192   1.401       .  A
C191        H198   1.084       .  S
C192        C193   1.407       .  A
C192        H199   1.083       .  S
C193        C194   1.403       .  A
C194        H200   1.084       .  S
C201        C371   1.489       .  S
C201        C206   1.408   1_556  A
C201        C482   1.408       .  A
C202        C203   1.398       .  A
C202        C481   1.408       .  A
C202        H211   1.083       .  S
C203        C204   1.401       .  A
C203        H212   1.084       .  S
C204        C210   1.409       .  A
C204        C485   1.415       .  A
C205        C207   1.402       .  A
C205        C206   1.411       .  A
C205        C484   1.415   1_554  A
C206        H213   1.084       .  S
C207        C208   1.400   1_565  A
C207        H214   1.084       .  S
C208        C209   1.408       .  A
C208        H215   1.083       .  S
C209        C490   1.407   1_544  A
C210        C489   1.407   1_565  A
C210        H216   1.084       .  S
C217        C222   1.407   1_556  A
C217       C1338   1.408   1_455  A
C218        C219   1.400       .  A
C218        C777   1.408       .  A
C218        H227   1.083       .  S
C219        C220   1.402       .  A
C219        H228   1.084       .  S
C220        C226   1.410       .  A
C220        C781   1.415   1_556  A
C221        C223   1.401       .  A
C221        C222   1.408       .  A
C221       C1340   1.415   1_454  A
C222        H229   1.084       .  S
C223        C224   1.398       .  A
C223        H230   1.084       .  S
C224        C225   1.407   1_455  A
C224        H231   1.083       .  S
C225       C1346   1.408   1_554  A
C226        C785   1.408   1_556  A
C226        H232   1.084       .  S
C233        C238   1.405   1_655  A
C233       C1354   1.407       .  A
C234        C235   1.395       .  A
C234        C793   1.407       .  A
C234        H243   1.083       .  S
C235        C236   1.399       .  A
C235        H244   1.084       .  S
C236        C242   1.405       .  A
C236        C797   1.416       .  A
C237        C239   1.402       .  A
C237        C238   1.408       .  A
C237       C1356   1.416   1_455  A
C238        H245   1.084       .  S
C239        C240   1.399       .  A
C239        H246   1.084       .  S
C240        C241   1.407       .  A
C240        H247   1.083       .  S
C241       C1150   1.481       .  S
C241       C1362   1.404       .  A
C242        C801   1.404       .  A
C242        H248   1.084       .  S
C249        C616   1.480       .  S
C249        C254   1.407       .  A
C249        C810   1.407       .  A
C250        C251   1.392       .  A
C250       C1369   1.407       .  A
C250        H259   1.083       .  S
C251        C252   1.397       .  A
C251        H260   1.084       .  S
C252        C258   1.402   1_455  A
C252       C1373   1.416   1_455  A
C253        C255   1.404       .  A
C253        C254   1.411       .  A
C253        C812   1.416       .  A
C254        H261   1.084       .  S
C255        C256   1.402       .  A
C255        H262   1.084       .  S
C256        C257   1.407       .  A
C256        H263   1.083       .  S
C257        C818   1.401       .  A
C258       C1377   1.401       .  A
C258        H264   1.085   1_655  S
C265        C589   1.482       .  S
C265        C266   1.407       .  A
C265        C830   1.405       .  A
C266        C267   1.399       .  A
C266        H275   1.083       .  S
C267        C268   1.402       .  A
C267        H276   1.084       .  S
C268        C274   1.407       .  A
C268        C829   1.414       .  A
C269        C271   1.400       .  A
C269        C270   1.404       .  A
C269       C1388   1.414   1_455  A
C270       C1385   1.405       .  A
C270        H277   1.084       .  S
C271        C272   1.396       .  A
C271        H278   1.084       .  S
C272       C1393   1.407   1_455  A
C272        H279   1.083       .  S
C273        C274   1.407       .  A
C273        C832   1.407       .  A
C274        H280   1.084       .  S
C281        C282   1.527       .  S
C281        C287   1.525       .  S
C281        C285   1.547       .  S
C281        C416   1.516       .  S
C282        H289   1.087       .  S
C282        C283   1.362       .  D
C283        C284   1.542       .  S
C283        C307   1.469       .  S
C284        C288   1.548       .  S
C284        C286   1.539       .  S
C284        H290   1.111       .  S
C285        H291   1.086       .  S
C285        C286   1.370       .  D
C286        C378   1.483       .  S
C287        H292   1.087       .  S
C287        C288   1.373       .  D
C288        C320   1.476       .  S
O293        C296   1.265       .  A
O293       Cd298   2.446       .  S
C294        O863   1.264       .  A
C294        O299   1.268       .  A
C294        C553   1.481       .  S
O295        C301   1.270       .  A
O295      Cd1418   2.512       .  S
C296        C352   1.468       .  S
C296        O304   1.263       .  A
C297        O862   1.271       .  A
C297        O300   1.265       .  A
C297        C537   1.478       .  S
Cd298       O855   2.512       .  S
Cd298       O305   2.461       .  S
Cd298       O304   2.477       .  S
Cd298       O863   2.450       .  S
Cd298       O299   2.490       .  S
Cd298       O862   2.471       .  S
Cd298       O300   2.447       .  S
C301       C1503   1.516       .  S
C301       O1425   1.264       .  A
O302       C1417   1.271       .  A
O302      Cd1418   2.471       .  S
O303       C1414   1.264       .  A
O303      Cd1418   2.450       .  S
O305        C861   1.264       .  A
O306        C309   1.268       .  A
O306       Cd311   2.480       .  S
C307        O316   1.263       .  A
C307        O312   1.265       .  A
O308        C314   1.269       .  A
O308       Cd871   2.497       .  S
C309       O1437   1.264   1_455  A
C309       C1665   1.481       .  S
C310        O315   1.271       .  A
C310        O873   1.266       .  A
C310       C1081   1.481       .  S
Cd311      O1428   2.497       .  S
Cd311       O318   2.466       .  S
Cd311      O1437   2.460   1_455  S
Cd311       O316   2.480       .  S
Cd311       O312   2.459       .  S
Cd311      O1435   2.481       .  S
Cd311       O313   2.439       .  S
O313       C1430   1.266       .  A
C314        C421   1.513       .  S
C314        O878   1.264       .  A
O315       Cd871   2.481       .  S
O317        C869   1.264       .  A
O317       Cd871   2.460       .  S
O318       C1434   1.264       .  A
O319        C602   1.270       .  A
O319       Cd324   2.506       .  S
C320        O329   1.261       .  A
C320        O325   1.271       .  A
O321        C327   1.267       .  A
O321      Cd1164   2.511       .  S
C322       O1159   1.270       .  A
C322        O330   1.265   1_655  A
C322        C505   1.486       .  S
C323        O328   1.272   1_655  A
C323       O1446   1.263       .  A
C323        C513   1.479       .  S
Cd324       O601   2.512   1_556  S
Cd324       O610   2.451   1_556  S
Cd324       O329   2.398       .  S
Cd324       O325   2.538       .  S
Cd324       O888   2.519       .  S
Cd324       O326   2.408       .  S
O326        C883   1.263       .  A
C327       C1546   1.483       .  S
C327       O1451   1.263       .  A
O328      Cd1444   2.519   1_455  S
O330      Cd1164   2.449   1_455  S
O331        C887   1.263       .  A
O332        C335   1.271       .  A
O332       Cd337   2.545       .  S
C333       O1182   1.266   1_455  A
C333        O338   1.270       .  A
C333        C497   1.488       .  S
O334        C340   1.268       .  A
O334       Cd617   2.515   1_556  S
C335        C347   1.479       .  S
C335        O343   1.261       .  A
C336       O1461   1.273   1_455  A
C336        O339   1.264       .  A
C336       C1649   1.480       .  S
Cd337      O1174   2.515       .  S
Cd337       O343   2.408       .  S
Cd337      O1182   2.462   1_455  S
Cd337       O338   2.499       .  S
Cd337      O1461   2.523   1_455  S
Cd337       O339   2.401       .  S
C340        C948   1.482       .  S
C340        O904   1.264       .  A
O341        C896   1.273       .  A
O341       Cd897   2.523       .  S
O342        C613   1.266       .  A
O342       Cd617   2.464   1_556  S
O344       C1460   1.264       .  A
C345        C346   1.526       .  S
C345        C351   1.525       .  S
C345        C349   1.545       .  S
C345        C403   1.514       .  S
C346        H353   1.086       .  S
C346        C347   1.373       .  D
C347        C348   1.549       .  S
C348        C352   1.542       .  S
C348        C350   1.541       .  S
C348        H354   1.111       .  S
C349        H355   1.086       .  S
C349        C350   1.369       .  D
C350        C365   1.482       .  S
C351        H356   1.088       .  S
C351        C352   1.361       .  D
O357       Cd362   2.502       .  S
C358        C390   1.477       .  S
C358        O367   1.261       .  A
C358        O363   1.271       .  A
O359        C365   1.267       .  A
C360        O368   1.266       .  A
C360        C489   1.489       .  S
C361        O366   1.273       .  A
C361        O364   1.265       .  A
C361        C465   1.480       .  S
Cd362       O367   2.411       .  S
Cd362       O363   2.535       .  S
Cd362       O366   2.514       .  S
Cd362       O364   2.400       .  S
C365        O369   1.264       .  A
O370        C373   1.270       .  A
O370       Cd375   2.535       .  S
C371        O380   1.265       .  A
O372        C378   1.266       .  A
C373        C423   1.477       .  S
C373        O381   1.261       .  A
C374        O379   1.273       .  A
C374        O377   1.264       .  A
C374        C449   1.478       .  S
Cd375       O381   2.414       .  S
Cd375       O376   2.513       .  S
Cd375       O379   2.518       .  S
Cd375       O377   2.410       .  S
C378        O382   1.263       .  A
C383        C384   1.527       .  S
C383        C949   1.527       .  S
C383        C947   1.545       .  S
C383        C861   1.516       .  S
C384        H391   1.087       .  S
C384        C385   1.363       .  D
C385        C946   1.543       .  S
C385        C396   1.470       .  S
C386       C1505   1.543   1_455  S
C386        C390   1.549       .  S
C386        C388   1.540       .  S
C386        H392   1.111       .  S
C387       C1503   1.545       .  S
C387        H393   1.086       .  S
C387        C388   1.369   1_655  D
C388       C1460   1.482       .  S
C389       C1503   1.527   1_455  S
C389        H394   1.086       .  S
C389        C390   1.373       .  D
O395        C398   1.267       .  A
O395       Cd400   2.511       .  S
C396        O405   1.264       .  A
C396        O401   1.264       .  A
O397        C403   1.269       .  A
O397       Cd400   2.505       .  S
C398        O406   1.263       .  A
C398        C441   1.484       .  S
C399        O404   1.269       .  A
C399        O402   1.265       .  A
C399        C473   1.481       .  S
Cd400       O407   2.471       .  S
Cd400       O406   2.448       .  S
Cd400       O405   2.485       .  S
Cd400       O401   2.449       .  S
Cd400       O404   2.479       .  S
Cd400       O402   2.455       .  S
C403        O407   1.264       .  A
O408        C411   1.265       .  A
O408       Cd413   2.461       .  S
C409        O418   1.265       .  A
C409        O414   1.269       .  A
C409        C433   1.484       .  S
O410        C416   1.270       .  A
O410       Cd413   2.510       .  S
C411        C428   1.471       .  S
C411        O419   1.262       .  A
C412        O417   1.271       .  A
C412        O415   1.265       .  A
C412        C457   1.482       .  S
Cd413       O420   2.461       .  S
Cd413       O419   2.489       .  S
Cd413       O418   2.462       .  S
Cd413       O414   2.486       .  S
Cd413       O417   2.485       .  S
Cd413       O415   2.447       .  S
C416        O420   1.264       .  A
C421        C422   1.526       .  S
C421        C987   1.527       .  S
C421        C425   1.546       .  S
C422        H429   1.086       .  S
C422        C423   1.372       .  D
C423        C424   1.549       .  S
C424        C988   1.543       .  S
C424        C426   1.540       .  S
C424        H430   1.111       .  S
C425        H431   1.086       .  S
C425        C426   1.370       .  D
C426        C887   1.483       .  S
C427       C1541   1.527       .  S
C427        H432   1.087       .  S
C427        C428   1.362       .  D
C428       C1544   1.543   1_455  S
C433        C434   1.408       .  A
C433        C438   1.405       .  A
C434        C435   1.400       .  A
C434        H443   1.083       .  S
C435        C436   1.403       .  A
C435        H444   1.084       .  S
C436        C442   1.410       .  A
C436        C437   1.415       .  A
C437        C439   1.400       .  A
C437        C438   1.405       .  A
C438        H445   1.084       .  S
C439        C440   1.396   1_565  A
C439        H446   1.084       .  S
C440        C441   1.407       .  A
C440        H447   1.083       .  S
C441        C442   1.408   1_545  A
C442        H448   1.084       .  S
C449        C450   1.406       .  A
C449        C454   1.406       .  A
C450        C451   1.394       .  A
C450        H459   1.083       .  S
C451        C452   1.399       .  A
C451        H460   1.084       .  S
C452        C458   1.404       .  A
C452        C453   1.416       .  A
C453        C455   1.403       .  A
C453        C454   1.410       .  A
C454        H461   1.084       .  S
C455        C456   1.400       .  A
C455        H462   1.084       .  S
C456        C457   1.408       .  A
C456        H463   1.083       .  S
C457        C458   1.403       .  A
C458        H464   1.084       .  S
C465        C466   1.407       .  A
C465        C470   1.407       .  A
C466        C467   1.393       .  A
C466        H475   1.083       .  S
C467        C468   1.398       .  A
C467        H476   1.084       .  S
C468        C474   1.403       .  A
C468        C469   1.416       .  A
C469        C471   1.403       .  A
C469        C470   1.410       .  A
C470        H477   1.084       .  S
C471        C472   1.401       .  A
C471        H478   1.084       .  S
C472        C473   1.407       .  A
C472        H479   1.083       .  S
C473        C474   1.403       .  A
C474        H480   1.084       .  S
C481        C486   1.408       .  A
C482        C483   1.398       .  A
C482        H491   1.083       .  S
C483        C484   1.401       .  A
C483        H492   1.084       .  S
C484        C490   1.409       .  A
C485        C487   1.402       .  A
C485        C486   1.411       .  A
C486        H493   1.084       .  S
C487        C488   1.400   1_565  A
C487        H494   1.084       .  S
C488        C489   1.408       .  A
C488        H495   1.083       .  S
C490        H496   1.084       .  S
C497       C1618   1.408   1_455  A
C497        C502   1.407       .  A
C498       C1057   1.408       .  A
C498        C499   1.400       .  A
C498        H507   1.083       .  S
C499        C500   1.402       .  A
C499        H508   1.084       .  S
C500        C506   1.410       .  A
C500       C1061   1.415       .  A
C501       C1620   1.415   1_455  A
C501        C503   1.401       .  A
C501        C502   1.408       .  A
C502        H509   1.084       .  S
C503        C504   1.398       .  A
C503        H510   1.084       .  S
C504        C505   1.407   1_455  A
C504        H511   1.083       .  S
C505       C1626   1.408       .  A
C506       C1065   1.408       .  A
C506        H512   1.084       .  S
C513       C1634   1.407       .  A
C513        C518   1.405   1_655  A
C514       C1073   1.407       .  A
C514        C515   1.395       .  A
C514        H523   1.083       .  S
C515        C516   1.399       .  A
C515        H524   1.084       .  S
C516        C522   1.405       .  A
C516       C1077   1.416       .  A
C517       C1636   1.416   1_455  A
C517        C519   1.402       .  A
C517        C518   1.409       .  A
C518        H525   1.084       .  S
C519        C520   1.399       .  A
C519        H526   1.084       .  S
C520        C521   1.407       .  A
C520        H527   1.083       .  S
C521       C1430   1.481       .  S
C521       C1642   1.404       .  A
C522       C1081   1.404       .  A
C522        H528   1.084       .  S
C529        C896   1.480       .  S
C529       C1090   1.407       .  A
C529        C534   1.407       .  A
C530       C1649   1.407       .  A
C530        C531   1.392       .  A
C530        H539   1.083       .  S
C531        C532   1.398       .  A
C531        H540   1.084       .  S
C532        C538   1.402   1_455  A
C532       C1653   1.416   1_455  A
C533       C1092   1.416       .  A
C533        C535   1.404       .  A
C533        C534   1.411       .  A
C534        H541   1.084       .  S
C535        C536   1.402       .  A
C535        H542   1.084       .  S
C536        C537   1.407       .  A
C536        H543   1.083       .  S
C537       C1098   1.401       .  A
C538       C1657   1.401       .  A
C538        H544   1.085   1_655  S
C545        C869   1.481       .  S
C545        C546   1.407       .  A
C545       C1110   1.405       .  A
C546        C547   1.399       .  A
C546        H555   1.083       .  S
C547        C548   1.402       .  A
C547        H556   1.084       .  S
C548        C554   1.407       .  A
C548       C1109   1.414       .  A
C549       C1668   1.414   1_455  A
C549        C551   1.401       .  A
C549        C550   1.404       .  A
C550       C1665   1.405       .  A
C550        H557   1.084       .  S
C551        C552   1.396       .  A
C551        H558   1.084       .  S
C552       C1673   1.406   1_455  A
C552        H559   1.083       .  S
C553       C1112   1.406       .  A
C553        C554   1.407       .  A
C554        H560   1.084       .  S
C561        C562   1.528       .  S
C561        C567   1.525       .  S
C561        C565   1.547       .  S
C561        C696   1.516       .  S
C562        H569   1.087       .  S
C562        C563   1.362       .  D
C563        C564   1.541       .  S
C563        C587   1.469       .  S
C564        C568   1.548       .  S
C564        C566   1.539       .  S
C564        H570   1.111       .  S
C565        H571   1.086       .  S
C565        C566   1.370       .  D
C566        C658   1.483       .  S
C567        H572   1.087       .  S
C567        C568   1.373       .  D
C568        C600   1.476       .  S
O573        C576   1.265       .  A
O573       Cd578   2.444       .  S
C574       O1143   1.264       .  A
C574        O579   1.267       .  A
C574        C833   1.482       .  S
O575        C581   1.270       .  A
C576        C632   1.468       .  S
C576        O584   1.263       .  A
C577       O1142   1.271       .  A
C577        O580   1.265       .  A
C577        C817   1.478       .  S
Cd578      O1135   2.514       .  S
Cd578       O585   2.463       .  S
Cd578       O584   2.481       .  S
Cd578      O1143   2.451       .  S
Cd578       O579   2.494       .  S
Cd578      O1142   2.470       .  S
Cd578       O580   2.449       .  S
O585       C1141   1.264       .  A
O586        C589   1.268       .  A
O586       Cd591   2.479       .  S
C587        O596   1.263       .  A
C587        O592   1.265       .  A
O588        C594   1.269       .  A
O588      Cd1151   2.495       .  S
C590        O595   1.271       .  A
C590       O1153   1.266       .  A
C590       C1361   1.481       .  S
Cd591       O598   2.467       .  S
Cd591       O596   2.478       .  S
Cd591       O592   2.461       .  S
Cd591       O593   2.438       .  S
C594        C701   1.513       .  S
C594       O1158   1.264       .  A
O595      Cd1151   2.483       .  S
O597       C1149   1.265       .  A
O597      Cd1151   2.460       .  S
O599       C1442   1.270       .  A
O599       Cd604   2.506       .  S
C600        O609   1.261       .  A
C600        O605   1.271       .  A
O601        C607   1.267       .  A
C602        O610   1.265   1_556  A
C602        C785   1.486   1_556  S
C603        O608   1.272       .  A
C603        C793   1.478       .  S
Cd604      O1441   2.511       .  S
Cd604       O891   2.473       .  S
Cd604      O1450   2.449       .  S
Cd604       O609   2.398       .  S
Cd604       O605   2.536       .  S
Cd604      O1168   2.518       .  S
Cd604       O606   2.406       .  S
O606       C1163   1.263       .  A
O611       C1167   1.263       .  A
O611       Cd884   2.473   1_554  S
O612        C615   1.271       .  A
O612       Cd617   2.546       .  S
C613        O618   1.270   1_556  A
C613        C777   1.488       .  S
O614        C620   1.268       .  A
O614      Cd1457   2.515       .  S
C615        C627   1.479       .  S
C615        O623   1.261       .  A
C616        O619   1.264       .  A
Cd617       O904   2.461   1_554  S
Cd617       O623   2.408       .  S
Cd617       O618   2.498       .  S
Cd617       O619   2.399       .  S
C620       C1228   1.483       .  S
C620       O1184   1.264       .  A
O621       C1176   1.273       .  A
O621      Cd1177   2.523       .  S
O622       C1453   1.266       .  A
O622      Cd1457   2.462       .  S
O624       Cd897   2.462       .  S
C625        C626   1.526       .  S
C625        C631   1.525       .  S
C625        C629   1.545       .  S
C625        C683   1.514       .  S
C626        H633   1.086       .  S
C626        C627   1.373       .  D
C627        C628   1.549       .  S
C628        C632   1.543       .  S
C628        C630   1.541       .  S
C628        H634   1.111       .  S
C629        H635   1.086       .  S
C629        C630   1.369       .  D
C630        C645   1.482       .  S
C631        H636   1.088       .  S
C631        C632   1.361       .  D
O637        C920   1.271       .  A
O637       Cd642   2.503       .  S
C638        C670   1.477       .  S
C638        O647   1.261       .  A
C638        O643   1.271       .  A
O639        C645   1.267       .  A
O639       Cd922   2.510   1_554  S
C640        O917   1.270   1_554  A
C640        O648   1.266       .  A
C640        C769   1.489       .  S
C641        O646   1.273       .  A
C641        O644   1.264       .  A
C641        C745   1.480       .  S
Cd642       O919   2.510       .  S
Cd642       O929   2.470       .  S
Cd642       O928   2.462       .  S
Cd642       O647   2.411       .  S
Cd642       O643   2.534       .  S
Cd642       O646   2.513       .  S
Cd642       O644   2.399       .  S
C645        O649   1.264       .  A
O648       Cd922   2.463   1_554  S
O649       Cd922   2.469   1_554  S
O650        C653   1.270       .  A
O650       Cd655   2.536       .  S
C651        O660   1.265       .  A
C651        O936   1.270       .  A
C651       C1041   1.489       .  S
O652        C658   1.267       .  A
O652       Cd935   2.509       .  S
C653        C703   1.478       .  S
C653        O661   1.261       .  A
C654        O659   1.272       .  A
C654        O657   1.264       .  A
C654        C729   1.478       .  S
Cd655       O932   2.510   1_554  S
Cd655       O942   2.478   1_554  S
Cd655       O661   2.414       .  S
Cd655       O940   2.453   1_554  S
Cd655       O656   2.515       .  S
Cd655       O659   2.520       .  S
Cd655       O657   2.410       .  S
O656        C931   1.270   1_554  A
C658        O662   1.263       .  A
O660       Cd935   2.453       .  S
O662       Cd935   2.479       .  S
C663        C664   1.527       .  S
C663       C1229   1.527       .  S
C663       C1227   1.545       .  S
C663       C1141   1.516       .  S
C664        H671   1.087       .  S
C664        C665   1.362       .  D
C665       C1226   1.542       .  S
C665        C676   1.469       .  S
C666        C670   1.549       .  S
C666        C668   1.539       .  S
C666        H672   1.111       .  S
C667        H673   1.086       .  S
C667        C668   1.369       .  D
C669        H674   1.086       .  S
C669        C670   1.373       .  D
O675        C678   1.268       .  A
O675       Cd680   2.510       .  S
C676        O685   1.264       .  A
C676        O681   1.265       .  A
O677        C683   1.269       .  A
O677       Cd680   2.504       .  S
C678        O686   1.263       .  A
C678        C721   1.484       .  S
C679        O684   1.269       .  A
C679        O682   1.265       .  A
C679        C753   1.480       .  S
Cd680       O687   2.472       .  S
Cd680       O686   2.444       .  S
Cd680       O685   2.482       .  S
Cd680       O681   2.450       .  S
Cd680       O684   2.479       .  S
Cd680       O682   2.454       .  S
C683        O687   1.264       .  A
O688        C691   1.265       .  A
O688       Cd693   2.462       .  S
C689        O698   1.265       .  A
C689        O694   1.269       .  A
C689        C713   1.484       .  S
O690        C696   1.270       .  A
O690       Cd693   2.511       .  S
C691        C708   1.471       .  S
C691        O699   1.262       .  A
C692        O697   1.272       .  A
C692        O695   1.265       .  A
C692        C737   1.482       .  S
Cd693       O700   2.461       .  S
Cd693       O699   2.487       .  S
Cd693       O698   2.464       .  S
Cd693       O694   2.484       .  S
Cd693       O697   2.485       .  S
Cd693       O695   2.446       .  S
C696        O700   1.264       .  A
C701        C702   1.525       .  S
C701       C1267   1.527       .  S
C701        C705   1.546       .  S
C702        H709   1.086       .  S
C702        C703   1.371       .  D
C703        C704   1.549       .  S
C704       C1268   1.543       .  S
C704        C706   1.540       .  S
C704        H710   1.111       .  S
C705        H711   1.086       .  S
C705        C706   1.370       .  D
C706       C1167   1.483       .  S
C707        H712   1.087       .  S
C707        C708   1.362       .  D
C713        C714   1.408       .  A
C713        C718   1.405       .  A
C714        C715   1.400       .  A
C714        H723   1.083       .  S
C715        C716   1.403       .  A
C715        H724   1.084       .  S
C716        C722   1.410       .  A
C716        C717   1.415       .  A
C717        C719   1.400       .  A
C717        C718   1.405       .  A
C718        H725   1.084       .  S
C719        C720   1.395   1_565  A
C719        H726   1.084       .  S
C720        C721   1.407       .  A
C720        H727   1.083       .  S
C721        C722   1.408   1_545  A
C722        H728   1.084       .  S
C729        C730   1.406       .  A
C729        C734   1.406       .  A
C730        C731   1.394       .  A
C730        H739   1.083       .  S
C731        C732   1.399       .  A
C731        H740   1.084       .  S
C732        C738   1.404       .  A
C732        C733   1.416       .  A
C733        C735   1.403       .  A
C733        C734   1.410       .  A
C734        H741   1.084       .  S
C735        C736   1.401       .  A
C735        H742   1.084       .  S
C736        C737   1.408       .  A
C736        H743   1.083       .  S
C737        C738   1.403       .  A
C738        H744   1.084       .  S
C745        C746   1.407       .  A
C745        C750   1.406       .  A
C746        C747   1.393       .  A
C746        H755   1.083       .  S
C747        C748   1.398       .  A
C747        H756   1.084       .  S
C748        C754   1.403       .  A
C748        C749   1.416       .  A
C749        C751   1.403       .  A
C749        C750   1.410       .  A
C750        H757   1.084       .  S
C751        C752   1.401       .  A
C751        H758   1.084       .  S
C752        C753   1.407       .  A
C752        H759   1.083       .  S
C753        C754   1.403       .  A
C754        H760   1.084       .  S
C761        C931   1.489       .  S
C761       C1042   1.408       .  A
C761        C766   1.408   1_556  A
C762       C1041   1.408       .  A
C762        C763   1.398       .  A
C762        H771   1.083       .  S
C763        C764   1.401       .  A
C763        H772   1.084       .  S
C764        C770   1.409       .  A
C764       C1045   1.415       .  A
C765       C1044   1.415   1_554  A
C765        C767   1.402       .  A
C765        C766   1.411       .  A
C766        H773   1.084       .  S
C767        C768   1.400   1_565  A
C767        H774   1.084       .  S
C768        C769   1.408       .  A
C768        H775   1.083       .  S
C769       C1050   1.407   1_544  A
C770       C1049   1.407   1_565  A
C770        H776   1.084       .  S
C777        C782   1.407   1_556  A
C778       C1337   1.408       .  A
C778        C779   1.400       .  A
C778        H787   1.083       .  S
C779        C780   1.402       .  A
C779        H788   1.084       .  S
C780        C786   1.410       .  A
C780       C1341   1.415   1_556  A
C781        C783   1.401       .  A
C781        C782   1.408       .  A
C782        H789   1.084       .  S
C783        C784   1.398       .  A
C783        H790   1.084       .  S
C784        C785   1.407       .  A
C784        H791   1.083       .  S
C786       C1345   1.408   1_556  A
C786        H792   1.084       .  S
C793        C798   1.405       .  A
C794       C1353   1.407       .  A
C794        C795   1.395       .  A
C794        H803   1.083       .  S
C795        C796   1.399       .  A
C795        H804   1.084       .  S
C796        C802   1.405       .  A
C796       C1357   1.416       .  A
C797        C799   1.402       .  A
C797        C798   1.408       .  A
C798        H805   1.084       .  S
C799        C800   1.399       .  A
C799        H806   1.084       .  S
C800        C801   1.407       .  A
C800        H807   1.083       .  S
C802       C1361   1.404       .  A
C802        H808   1.084       .  S
C809       C1176   1.480       .  S
C809       C1370   1.407       .  A
C809        C814   1.407       .  A
C810        C811   1.392       .  A
C810        H819   1.083       .  S
C811        C812   1.397       .  A
C811        H820   1.084       .  S
C812        C818   1.402       .  A
C813       C1372   1.416       .  A
C813        C815   1.404       .  A
C813        C814   1.411       .  A
C814        H821   1.084       .  S
C815        C816   1.402       .  A
C815        H822   1.084       .  S
C816        C817   1.407       .  A
C816        H823   1.083       .  S
C817       C1378   1.401       .  A
C818        H824   1.085       .  S
C825       C1149   1.482       .  S
C825        C826   1.407       .  A
C825       C1390   1.405       .  A
C826        C827   1.399       .  A
C826        H835   1.083       .  S
C827        C828   1.402       .  A
C827        H836   1.084       .  S
C828        C834   1.407       .  A
C828       C1389   1.414       .  A
C829        C831   1.400       .  A
C829        C830   1.404       .  A
C830        H837   1.084       .  S
C831        C832   1.396       .  A
C831        H838   1.084       .  S
C832        H839   1.083       .  S
C833       C1392   1.407       .  A
C833        C834   1.407       .  A
C834        H840   1.084       .  S
C841        C842   1.527       .  S
C841        C847   1.525       .  S
C841        C845   1.547       .  S
C841        C976   1.516       .  S
C842        H849   1.087       .  S
C842        C843   1.362       .  D
C843        C844   1.542       .  S
C843        C867   1.469       .  S
C844        C848   1.548       .  S
C844        C846   1.539       .  S
C844        H850   1.111       .  S
C845        H851   1.086       .  S
C845        C846   1.370       .  D
C846        C938   1.483       .  S
C847        H852   1.087       .  S
C847        C848   1.373       .  D
C848        C880   1.476       .  S
O853        C856   1.265       .  A
O853       Cd858   2.446       .  S
C854       O1423   1.264       .  A
C854        O859   1.268       .  A
C854       C1113   1.481       .  S
O855        C861   1.270       .  A
C856        C912   1.468       .  S
C856        O864   1.263       .  A
C857       O1422   1.271       .  A
C857        O860   1.265       .  A
C857       C1097   1.478       .  S
Cd858      O1415   2.512       .  S
Cd858       O865   2.461       .  S
Cd858       O864   2.477       .  S
Cd858      O1423   2.450       .  S
Cd858       O859   2.490       .  S
Cd858      O1422   2.471       .  S
Cd858       O860   2.447       .  S
O865       C1421   1.264       .  A
O866        C869   1.268       .  A
O866       Cd871   2.480       .  S
C867        O876   1.263       .  A
C867        O872   1.265       .  A
O868        C874   1.269       .  A
O868      Cd1431   2.497       .  S
C870        O875   1.271       .  A
C870       O1433   1.266       .  A
C870       C1641   1.481       .  S
Cd871       O878   2.466       .  S
Cd871       O876   2.480       .  S
Cd871       O872   2.459       .  S
Cd871       O873   2.439       .  S
C874        C981   1.513       .  S
C874       O1438   1.264       .  A
O875      Cd1431   2.481       .  S
O877       C1429   1.264       .  A
O877      Cd1431   2.460       .  S
O879       C1162   1.270       .  A
O879       Cd884   2.506       .  S
C880        O889   1.261       .  A
C880        O885   1.271       .  A
O881        C887   1.267       .  A
C882        O890   1.265       .  A
C882       C1065   1.486       .  S
C883        O888   1.272       .  A
C883       C1073   1.479       .  S
Cd884      O1161   2.512   1_556  S
Cd884      O1170   2.451   1_556  S
Cd884       O889   2.398       .  S
Cd884       O885   2.538       .  S
Cd884      O1448   2.519       .  S
Cd884       O886   2.408       .  S
O886       C1443   1.263       .  A
O891       C1447   1.263       .  A
O892        C895   1.271       .  A
O892       Cd897   2.545       .  S
C893        O898   1.270       .  A
C893       C1057   1.488       .  S
O894        C900   1.268       .  A
O894      Cd1177   2.515   1_556  S
C895        C907   1.479       .  S
C895        O903   1.261       .  A
C896        O899   1.264       .  A
Cd897       O903   2.408       .  S
Cd897       O898   2.499       .  S
Cd897       O899   2.401       .  S
C900       C1508   1.482       .  S
C900       O1464   1.264       .  A
O901       C1456   1.273       .  A
O901      Cd1457   2.523       .  S
O902       C1173   1.266       .  A
O902      Cd1177   2.464   1_556  S
C905        C906   1.526       .  S
C905        C911   1.525       .  S
C905        C909   1.545       .  S
C905        C963   1.514       .  S
C906        H913   1.086       .  S
C906        C907   1.373       .  D
C907        C908   1.549       .  S
C908        C912   1.542       .  S
C908        C910   1.541       .  S
C908        H914   1.111       .  S
C909        H915   1.086       .  S
C909        C910   1.369       .  D
C910        C925   1.482       .  S
C911        H916   1.088       .  S
C911        C912   1.361       .  D
O917       Cd922   2.502       .  S
C918        C950   1.477       .  S
C918        O927   1.261       .  A
C918        O923   1.271       .  A
O919        C925   1.267       .  A
C920        O928   1.266       .  A
C920       C1049   1.489       .  S
C921        O926   1.273       .  A
C921        O924   1.265       .  A
C921       C1025   1.480       .  S
Cd922       O927   2.411       .  S
Cd922       O923   2.535       .  S
Cd922       O926   2.514       .  S
Cd922       O924   2.400       .  S
C925        O929   1.264       .  A
O930        C933   1.270       .  A
O930       Cd935   2.535       .  S
C931        O940   1.265       .  A
O932        C938   1.266       .  A
C933        C983   1.477       .  S
C933        O941   1.261       .  A
C934        O939   1.273       .  A
C934        O937   1.264       .  A
C934       C1009   1.478       .  S
Cd935       O941   2.414       .  S
Cd935       O936   2.513       .  S
Cd935       O939   2.518       .  S
Cd935       O937   2.410       .  S
C938        O942   1.263       .  A
C943        C944   1.527       .  S
C943       C1509   1.527       .  S
C943       C1507   1.545       .  S
C943       C1421   1.516       .  S
C944        H951   1.087       .  S
C944        C945   1.363       .  D
C945       C1506   1.543       .  S
C945        C956   1.470       .  S
C946        C950   1.549       .  S
C946        C948   1.540       .  S
C946        H952   1.111       .  S
C947        H953   1.086       .  S
C947        C948   1.369       .  D
C949        H954   1.086       .  S
C949        C950   1.373       .  D
O955        C958   1.267       .  A
O955       Cd960   2.511       .  S
C956        O965   1.264       .  A
C956        O961   1.264       .  A
O957        C963   1.269       .  A
O957       Cd960   2.505       .  S
C958        O966   1.263       .  A
C958       C1001   1.484       .  S
C959        O964   1.269       .  A
C959        O962   1.265       .  A
C959       C1033   1.481       .  S
Cd960       O967   2.471       .  S
Cd960       O966   2.448       .  S
Cd960       O965   2.485       .  S
Cd960       O961   2.449       .  S
Cd960       O964   2.479       .  S
Cd960       O962   2.455       .  S
C963        O967   1.264       .  A
O968        C971   1.265       .  A
O968       Cd973   2.461       .  S
C969        O978   1.265       .  A
C969        O974   1.269       .  A
C969        C993   1.484       .  S
O970        C976   1.270       .  A
O970       Cd973   2.510       .  S
C971        C988   1.471       .  S
C971        O979   1.262       .  A
C972        O977   1.271       .  A
C972        O975   1.265       .  A
C972       C1017   1.482       .  S
Cd973       O980   2.461       .  S
Cd973       O979   2.489       .  S
Cd973       O978   2.462       .  S
Cd973       O974   2.486       .  S
Cd973       O977   2.485       .  S
Cd973       O975   2.447       .  S
C976        O980   1.264       .  A
C981        C982   1.526       .  S
C981       C1547   1.527       .  S
C981        C985   1.546       .  S
C982        H989   1.086       .  S
C982        C983   1.372       .  D
C983        C984   1.549       .  S
C984       C1548   1.543       .  S
C984        C986   1.540       .  S
C984        H990   1.111       .  S
C985        H991   1.086       .  S
C985        C986   1.370       .  D
C986       C1447   1.483       .  S
C987        H992   1.087       .  S
C987        C988   1.362       .  D
C993        C994   1.408       .  A
C993        C998   1.405       .  A
C994        C995   1.400       .  A
C994       H1003   1.083       .  S
C995        C996   1.403       .  A
C995       H1004   1.084       .  S
C996       C1002   1.410       .  A
C996        C997   1.415       .  A
C997        C999   1.400       .  A
C997        C998   1.405       .  A
C998       H1005   1.084       .  S
C999       C1000   1.396   1_565  A
C999       H1006   1.084       .  S
C1000      C1001   1.407       .  A
C1000      H1007   1.083       .  S
C1001      C1002   1.408   1_545  A
C1002      H1008   1.084       .  S
C1009      C1010   1.406       .  A
C1009      C1014   1.406       .  A
C1010      C1011   1.394       .  A
C1010      H1019   1.083       .  S
C1011      C1012   1.399       .  A
C1011      H1020   1.084       .  S
C1012      C1018   1.404       .  A
C1012      C1013   1.416       .  A
C1013      C1015   1.403       .  A
C1013      C1014   1.410       .  A
C1014      H1021   1.084       .  S
C1015      C1016   1.400       .  A
C1015      H1022   1.084       .  S
C1016      C1017   1.408       .  A
C1016      H1023   1.083       .  S
C1017      C1018   1.403       .  A
C1018      H1024   1.084       .  S
C1025      C1026   1.407       .  A
C1025      C1030   1.407       .  A
C1026      C1027   1.393       .  A
C1026      H1035   1.083       .  S
C1027      C1028   1.398       .  A
C1027      H1036   1.084       .  S
C1028      C1034   1.403       .  A
C1028      C1029   1.416       .  A
C1029      C1031   1.403       .  A
C1029      C1030   1.410       .  A
C1030      H1037   1.084       .  S
C1031      C1032   1.401       .  A
C1031      H1038   1.084       .  S
C1032      C1033   1.407       .  A
C1032      H1039   1.083       .  S
C1033      C1034   1.403       .  A
C1034      H1040   1.084       .  S
C1041      C1046   1.408       .  A
C1042      C1043   1.398       .  A
C1042      H1051   1.083       .  S
C1043      C1044   1.401       .  A
C1043      H1052   1.084       .  S
C1044      C1050   1.409       .  A
C1045      C1047   1.402       .  A
C1045      C1046   1.411       .  A
C1046      H1053   1.084       .  S
C1047      C1048   1.400   1_565  A
C1047      H1054   1.084       .  S
C1048      C1049   1.408       .  A
C1048      H1055   1.083       .  S
C1050      H1056   1.084       .  S
C1057      C1062   1.407       .  A
C1058      C1617   1.408       .  A
C1058      C1059   1.400       .  A
C1058      H1067   1.083       .  S
C1059      C1060   1.402       .  A
C1059      H1068   1.084       .  S
C1060      C1066   1.410       .  A
C1060      C1621   1.415       .  A
C1061      C1063   1.401       .  A
C1061      C1062   1.408       .  A
C1062      H1069   1.084       .  S
C1063      C1064   1.398       .  A
C1063      H1070   1.084       .  S
C1064      C1065   1.407       .  A
C1064      H1071   1.083       .  S
C1066      C1625   1.408       .  A
C1066      H1072   1.084       .  S
C1073      C1078   1.405       .  A
C1074      C1633   1.407       .  A
C1074      C1075   1.395       .  A
C1074      H1083   1.083       .  S
C1075      C1076   1.399       .  A
C1075      H1084   1.084       .  S
C1076      C1082   1.405       .  A
C1076      C1637   1.416       .  A
C1077      C1079   1.402       .  A
C1077      C1078   1.409       .  A
C1078      H1085   1.084       .  S
C1079      C1080   1.399       .  A
C1079      H1086   1.084       .  S
C1080      C1081   1.407       .  A
C1080      H1087   1.083       .  S
C1082      C1641   1.404       .  A
C1082      H1088   1.084       .  S
C1089      C1456   1.480       .  S
C1089      C1650   1.407       .  A
C1089      C1094   1.407       .  A
C1090      C1091   1.392       .  A
C1090      H1099   1.083       .  S
C1091      C1092   1.398       .  A
C1091      H1100   1.084       .  S
C1092      C1098   1.402       .  A
C1093      C1652   1.416       .  A
C1093      C1095   1.404       .  A
C1093      C1094   1.411       .  A
C1094      H1101   1.084       .  S
C1095      C1096   1.402       .  A
C1095      H1102   1.084       .  S
C1096      C1097   1.407       .  A
C1096      H1103   1.083       .  S
C1097      C1658   1.401       .  A
C1098      H1104   1.085       .  S
C1105      C1429   1.481       .  S
C1105      C1106   1.407       .  A
C1105      C1670   1.405       .  A
C1106      C1107   1.399       .  A
C1106      H1115   1.083       .  S
C1107      C1108   1.402       .  A
C1107      H1116   1.084       .  S
C1108      C1114   1.407       .  A
C1108      C1669   1.414       .  A
C1109      C1111   1.401       .  A
C1109      C1110   1.404       .  A
C1110      H1117   1.084       .  S
C1111      C1112   1.396       .  A
C1111      H1118   1.084       .  S
C1112      H1119   1.083       .  S
C1113      C1672   1.406       .  A
C1113      C1114   1.407       .  A
C1114      H1120   1.084       .  S
C1121      C1122   1.528       .  S
C1121      C1127   1.525       .  S
C1121      C1125   1.547       .  S
C1121      C1256   1.516       .  S
C1122      H1129   1.087       .  S
C1122      C1123   1.362       .  D
C1123      C1124   1.541       .  S
C1123      C1147   1.469       .  S
C1124      C1128   1.548       .  S
C1124      C1126   1.539       .  S
C1124      H1130   1.111       .  S
C1125      H1131   1.086       .  S
C1125      C1126   1.370       .  D
C1126      C1218   1.483       .  S
C1127      H1132   1.087       .  S
C1127      C1128   1.373       .  D
C1128      C1160   1.476       .  S
O1133      C1136   1.265       .  A
O1133     Cd1138   2.444       .  S
C1134      O1139   1.267       .  A
C1134      C1393   1.482       .  S
O1135      C1141   1.270       .  A
C1136      C1192   1.468       .  S
C1136      O1144   1.263       .  A
C1137      O1140   1.265       .  A
C1137      C1377   1.478       .  S
Cd1138     O1145   2.463       .  S
Cd1138     O1144   2.481       .  S
Cd1138     O1139   2.494       .  S
Cd1138     O1140   2.449       .  S
O1146      C1149   1.268       .  A
O1146     Cd1151   2.479       .  S
C1147      O1156   1.263       .  A
C1147      O1152   1.265       .  A
O1148      C1154   1.269       .  A
C1150      O1155   1.271       .  A
Cd1151     O1158   2.467       .  S
Cd1151     O1156   2.478       .  S
Cd1151     O1152   2.461       .  S
Cd1151     O1153   2.438       .  S
C1154      C1261   1.513       .  S
O1159     Cd1164   2.506       .  S
C1160      O1169   1.261       .  A
C1160      O1165   1.271       .  A
O1161      C1167   1.267       .  A
C1162      O1170   1.265   1_556  A
C1162      C1345   1.486   1_556  S
C1163      O1168   1.272       .  A
C1163      C1353   1.478       .  S
Cd1164     O1451   2.473       .  S
Cd1164     O1169   2.398       .  S
Cd1164     O1165   2.536       .  S
Cd1164     O1166   2.406       .  S
O1171     Cd1444   2.473   1_554  S
O1172      C1175   1.271       .  A
O1172     Cd1177   2.546       .  S
C1173      O1178   1.270   1_556  A
C1173      C1337   1.488       .  S
O1174      C1180   1.268       .  A
C1175      C1187   1.479       .  S
C1175      O1183   1.261       .  A
C1176      O1179   1.264       .  A
Cd1177     O1464   2.461   1_554  S
Cd1177     O1183   2.408       .  S
Cd1177     O1178   2.498       .  S
Cd1177     O1179   2.399       .  S
O1184     Cd1457   2.462       .  S
C1185      C1186   1.526       .  S
C1185      C1191   1.525       .  S
C1185      C1189   1.545       .  S
C1185      C1243   1.514       .  S
C1186      H1193   1.086       .  S
C1186      C1187   1.373       .  D
C1187      C1188   1.549       .  S
C1188      C1192   1.543       .  S
C1188      C1190   1.541       .  S
C1188      H1194   1.111       .  S
C1189      H1195   1.086       .  S
C1189      C1190   1.369       .  D
C1190      C1205   1.482       .  S
C1191      H1196   1.088       .  S
C1191      C1192   1.361       .  D
O1197      C1480   1.271       .  A
O1197     Cd1202   2.503       .  S
C1198      C1230   1.477       .  S
C1198      O1207   1.261       .  A
C1198      O1203   1.271       .  A
O1199      C1205   1.267       .  A
O1199     Cd1482   2.510   1_554  S
C1200      O1477   1.270   1_554  A
C1200      O1208   1.266       .  A
C1200      C1329   1.489       .  S
C1201      O1206   1.273       .  A
C1201      O1204   1.264       .  A
C1201      C1305   1.480       .  S
Cd1202     O1479   2.510       .  S
Cd1202     O1489   2.470       .  S
Cd1202     O1488   2.462       .  S
Cd1202     O1207   2.411       .  S
Cd1202     O1203   2.534       .  S
Cd1202     O1206   2.513       .  S
Cd1202     O1204   2.399       .  S
C1205      O1209   1.264       .  A
O1208     Cd1482   2.463   1_554  S
O1209     Cd1482   2.469   1_554  S
O1210      C1213   1.270       .  A
O1210     Cd1215   2.536       .  S
C1211      O1220   1.265       .  A
C1211      O1496   1.270       .  A
C1211      C1601   1.489       .  S
O1212      C1218   1.267       .  A
O1212     Cd1495   2.509       .  S
C1213      C1263   1.478       .  S
C1213      O1221   1.261       .  A
C1214      O1219   1.272       .  A
C1214      O1217   1.264       .  A
C1214      C1289   1.478       .  S
Cd1215     O1492   2.510   1_554  S
Cd1215     O1502   2.478   1_554  S
Cd1215     O1221   2.414       .  S
Cd1215     O1500   2.453   1_554  S
Cd1215     O1216   2.515       .  S
Cd1215     O1219   2.520       .  S
Cd1215     O1217   2.410       .  S
O1216      C1491   1.270   1_554  A
C1218      O1222   1.263       .  A
O1220     Cd1495   2.453       .  S
O1222     Cd1495   2.479       .  S
C1223      C1224   1.527       .  S
C1224      H1231   1.087       .  S
C1224      C1225   1.362       .  D
C1225      C1236   1.469       .  S
C1226      C1230   1.549       .  S
C1226      C1228   1.539       .  S
C1226      H1232   1.111       .  S
C1227      H1233   1.086       .  S
C1227      C1228   1.369       .  D
C1229      H1234   1.086       .  S
C1229      C1230   1.373       .  D
O1235      C1238   1.268       .  A
O1235     Cd1240   2.510       .  S
C1236      O1245   1.264       .  A
C1236      O1241   1.265       .  A
O1237      C1243   1.269       .  A
O1237     Cd1240   2.504       .  S
C1238      O1246   1.263       .  A
C1238      C1281   1.484       .  S
C1239      O1244   1.269       .  A
C1239      O1242   1.265       .  A
C1239      C1313   1.480       .  S
Cd1240     O1247   2.472       .  S
Cd1240     O1246   2.444       .  S
Cd1240     O1245   2.482       .  S
Cd1240     O1241   2.450       .  S
Cd1240     O1244   2.479       .  S
Cd1240     O1242   2.454       .  S
C1243      O1247   1.264       .  A
O1248      C1251   1.265       .  A
O1248     Cd1253   2.462       .  S
C1249      O1258   1.265       .  A
C1249      O1254   1.269       .  A
C1249      C1273   1.484       .  S
O1250      C1256   1.270       .  A
O1250     Cd1253   2.511       .  S
C1251      C1268   1.471       .  S
C1251      O1259   1.262       .  A
C1252      O1257   1.272       .  A
C1252      O1255   1.265       .  A
C1252      C1297   1.482       .  S
Cd1253     O1260   2.461       .  S
Cd1253     O1259   2.487       .  S
Cd1253     O1258   2.464       .  S
Cd1253     O1254   2.484       .  S
Cd1253     O1257   2.485       .  S
Cd1253     O1255   2.446       .  S
C1256      O1260   1.264       .  A
C1261      C1262   1.525   1_455  S
C1261      C1265   1.546       .  S
C1262      H1269   1.086       .  S
C1262      C1263   1.371       .  D
C1263      C1264   1.549       .  S
C1264      C1266   1.540       .  S
C1264      H1270   1.111       .  S
C1265      H1271   1.086       .  S
C1265      C1266   1.370   1_455  D
C1267      H1272   1.087       .  S
C1267      C1268   1.362       .  D
C1273      C1274   1.408       .  A
C1273      C1278   1.405       .  A
C1274      C1275   1.400       .  A
C1274      H1283   1.083       .  S
C1275      C1276   1.403       .  A
C1275      H1284   1.084       .  S
C1276      C1282   1.410       .  A
C1276      C1277   1.415       .  A
C1277      C1279   1.400       .  A
C1277      C1278   1.405       .  A
C1278      H1285   1.084       .  S
C1279      C1280   1.395   1_565  A
C1279      H1286   1.084       .  S
C1280      C1281   1.407       .  A
C1280      H1287   1.083       .  S
C1281      C1282   1.408   1_545  A
C1282      H1288   1.084       .  S
C1289      C1290   1.406       .  A
C1289      C1294   1.406       .  A
C1290      C1291   1.394       .  A
C1290      H1299   1.083       .  S
C1291      C1292   1.399       .  A
C1291      H1300   1.084       .  S
C1292      C1298   1.404       .  A
C1292      C1293   1.416       .  A
C1293      C1295   1.403       .  A
C1293      C1294   1.410       .  A
C1294      H1301   1.084       .  S
C1295      C1296   1.401       .  A
C1295      H1302   1.084       .  S
C1296      C1297   1.408       .  A
C1296      H1303   1.083       .  S
C1297      C1298   1.403       .  A
C1298      H1304   1.084       .  S
C1305      C1306   1.407       .  A
C1305      C1310   1.406       .  A
C1306      C1307   1.393       .  A
C1306      H1315   1.083       .  S
C1307      C1308   1.398       .  A
C1307      H1316   1.084       .  S
C1308      C1314   1.403       .  A
C1308      C1309   1.416       .  A
C1309      C1311   1.403       .  A
C1309      C1310   1.410       .  A
C1310      H1317   1.084       .  S
C1311      C1312   1.401       .  A
C1311      H1318   1.084       .  S
C1312      C1313   1.407       .  A
C1312      H1319   1.083       .  S
C1313      C1314   1.403       .  A
C1314      H1320   1.084       .  S
C1321      C1491   1.489       .  S
C1321      C1602   1.408       .  A
C1321      C1326   1.408   1_556  A
C1322      C1601   1.408       .  A
C1322      C1323   1.398       .  A
C1322      H1331   1.083       .  S
C1323      C1324   1.401       .  A
C1323      H1332   1.084       .  S
C1324      C1330   1.409       .  A
C1324      C1605   1.415       .  A
C1325      C1604   1.415   1_554  A
C1325      C1327   1.402       .  A
C1325      C1326   1.411       .  A
C1326      H1333   1.084       .  S
C1327      C1328   1.400   1_565  A
C1327      H1334   1.084       .  S
C1328      C1329   1.408       .  A
C1328      H1335   1.083       .  S
C1329      C1610   1.407   1_544  A
C1330      C1609   1.407   1_565  A
C1330      H1336   1.084       .  S
C1337      C1342   1.407   1_556  A
C1338      C1339   1.400       .  A
C1338      H1347   1.083       .  S
C1339      C1340   1.402       .  A
C1339      H1348   1.084       .  S
C1340      C1346   1.410       .  A
C1341      C1343   1.401       .  A
C1341      C1342   1.408       .  A
C1342      H1349   1.084       .  S
C1343      C1344   1.398       .  A
C1343      H1350   1.084       .  S
C1344      C1345   1.407       .  A
C1344      H1351   1.083       .  S
C1346      H1352   1.084       .  S
C1353      C1358   1.405       .  A
C1354      C1355   1.395       .  A
C1354      H1363   1.083       .  S
C1355      C1356   1.399       .  A
C1355      H1364   1.084       .  S
C1356      C1362   1.405   1_655  A
C1357      C1359   1.402       .  A
C1357      C1358   1.408       .  A
C1358      H1365   1.084       .  S
C1359      C1360   1.399       .  A
C1359      H1366   1.084       .  S
C1360      C1361   1.407       .  A
C1360      H1367   1.083       .  S
C1362      H1368   1.084   1_455  S
C1369      C1374   1.407   1_455  A
C1370      C1371   1.392       .  A
C1370      H1379   1.083       .  S
C1371      C1372   1.397       .  A
C1371      H1380   1.084       .  S
C1372      C1378   1.402       .  A
C1373      C1375   1.404       .  A
C1373      C1374   1.411       .  A
C1374      H1381   1.084       .  S
C1375      C1376   1.402       .  A
C1375      H1382   1.084       .  S
C1376      C1377   1.407       .  A
C1376      H1383   1.083       .  S
C1378      H1384   1.085       .  S
C1385      C1386   1.407   1_455  A
C1386      C1387   1.399       .  A
C1386      H1395   1.083       .  S
C1387      C1388   1.402       .  A
C1387      H1396   1.084       .  S
C1388      C1394   1.407       .  A
C1389      C1391   1.400       .  A
C1389      C1390   1.404       .  A
C1390      H1397   1.084       .  S
C1391      C1392   1.396       .  A
C1391      H1398   1.084       .  S
C1392      H1399   1.083       .  S
C1393      C1394   1.407       .  A
C1394      H1400   1.084       .  S
C1401      C1402   1.527       .  S
C1401      C1407   1.525       .  S
C1401      C1405   1.547       .  S
C1401      C1536   1.516       .  S
C1402      H1409   1.087       .  S
C1402      C1403   1.362       .  D
C1403      C1404   1.542       .  S
C1403      C1427   1.469       .  S
C1404      C1408   1.548       .  S
C1404      C1406   1.539       .  S
C1404      H1410   1.111       .  S
C1405      H1411   1.086       .  S
C1405      C1406   1.370       .  D
C1406      C1498   1.483       .  S
C1407      H1412   1.087       .  S
C1407      C1408   1.373       .  D
C1408      C1440   1.476       .  S
O1413      C1416   1.265       .  A
O1413     Cd1418   2.446       .  S
C1414      O1419   1.268       .  A
C1414      C1673   1.481       .  S
O1415      C1421   1.270       .  A
C1416      C1472   1.468       .  S
C1416      O1424   1.263       .  A
C1417      O1420   1.265       .  A
C1417      C1657   1.478       .  S
Cd1418     O1425   2.461       .  S
Cd1418     O1424   2.477       .  S
Cd1418     O1419   2.490       .  S
Cd1418     O1420   2.447       .  S
O1426      C1429   1.268       .  A
O1426     Cd1431   2.480       .  S
C1427      O1436   1.263       .  A
C1427      O1432   1.265       .  A
O1428      C1434   1.269       .  A
C1430      O1435   1.271       .  A
Cd1431     O1438   2.466       .  S
Cd1431     O1436   2.480       .  S
Cd1431     O1432   2.459       .  S
Cd1431     O1433   2.439       .  S
C1434      C1541   1.513       .  S
O1439     Cd1444   2.506       .  S
C1440      O1449   1.261       .  A
C1440      O1445   1.271       .  A
O1441      C1447   1.267       .  A
C1442      O1450   1.265       .  A
C1442      C1625   1.486       .  S
C1443      O1448   1.272       .  A
C1443      C1633   1.479       .  S
Cd1444     O1449   2.398       .  S
Cd1444     O1445   2.538       .  S
Cd1444     O1446   2.408       .  S
O1452      C1455   1.271       .  A
O1452     Cd1457   2.545       .  S
C1453      O1458   1.270       .  A
C1453      C1617   1.488       .  S
O1454      C1460   1.268       .  A
C1455      C1467   1.479       .  S
C1455      O1463   1.261       .  A
C1456      O1459   1.264       .  A
Cd1457     O1463   2.408       .  S
Cd1457     O1458   2.499       .  S
Cd1457     O1459   2.401       .  S
C1465      C1466   1.526       .  S
C1465      C1471   1.525       .  S
C1465      C1469   1.545       .  S
C1465      C1523   1.514       .  S
C1466      H1473   1.086       .  S
C1466      C1467   1.373       .  D
C1467      C1468   1.549       .  S
C1468      C1472   1.542       .  S
C1468      C1470   1.541       .  S
C1468      H1474   1.111       .  S
C1469      H1475   1.086       .  S
C1469      C1470   1.369       .  D
C1470      C1485   1.482       .  S
C1471      H1476   1.088       .  S
C1471      C1472   1.361       .  D
O1477     Cd1482   2.502       .  S
C1478      C1510   1.477       .  S
C1478      O1487   1.261       .  A
C1478      O1483   1.271       .  A
O1479      C1485   1.267       .  A
C1480      O1488   1.266       .  A
C1480      C1609   1.489       .  S
C1481      O1486   1.273       .  A
C1481      O1484   1.265       .  A
C1481      C1585   1.480       .  S
Cd1482     O1487   2.411       .  S
Cd1482     O1483   2.535       .  S
Cd1482     O1486   2.514       .  S
Cd1482     O1484   2.400       .  S
C1485      O1489   1.264       .  A
O1490      C1493   1.270       .  A
O1490     Cd1495   2.535       .  S
C1491      O1500   1.265       .  A
O1492      C1498   1.266       .  A
C1493      C1543   1.477       .  S
C1493      O1501   1.261       .  A
C1494      O1499   1.273       .  A
C1494      O1497   1.264       .  A
C1494      C1569   1.478       .  S
Cd1495     O1501   2.414       .  S
Cd1495     O1496   2.513       .  S
Cd1495     O1499   2.518       .  S
Cd1495     O1497   2.410       .  S
C1498      O1502   1.263       .  A
C1503      C1504   1.527       .  S
C1504      H1511   1.087       .  S
C1504      C1505   1.363       .  D
C1505      C1516   1.470       .  S
C1506      C1510   1.549       .  S
C1506      C1508   1.540       .  S
C1506      H1512   1.111       .  S
C1507      H1513   1.086       .  S
C1507      C1508   1.369       .  D
C1509      H1514   1.086       .  S
C1509      C1510   1.373       .  D
O1515      C1518   1.267       .  A
O1515     Cd1520   2.511       .  S
C1516      O1525   1.264       .  A
C1516      O1521   1.264       .  A
O1517      C1523   1.269       .  A
O1517     Cd1520   2.505       .  S
C1518      O1526   1.263       .  A
C1518      C1561   1.484       .  S
C1519      O1524   1.269       .  A
C1519      O1522   1.265       .  A
C1519      C1593   1.481       .  S
Cd1520     O1527   2.471       .  S
Cd1520     O1526   2.448       .  S
Cd1520     O1525   2.485       .  S
Cd1520     O1521   2.449       .  S
Cd1520     O1524   2.479       .  S
Cd1520     O1522   2.455       .  S
C1523      O1527   1.264       .  A
O1528      C1531   1.265       .  A
O1528     Cd1533   2.461       .  S
C1529      O1538   1.265       .  A
C1529      O1534   1.269       .  A
C1529      C1553   1.484       .  S
O1530      C1536   1.270       .  A
O1530     Cd1533   2.510       .  S
C1531      C1548   1.471       .  S
C1531      O1539   1.262       .  A
C1532      O1537   1.271       .  A
C1532      O1535   1.265       .  A
C1532      C1577   1.482       .  S
Cd1533     O1540   2.461       .  S
Cd1533     O1539   2.489       .  S
Cd1533     O1538   2.462       .  S
Cd1533     O1534   2.486       .  S
Cd1533     O1537   2.485       .  S
Cd1533     O1535   2.447       .  S
C1536      O1540   1.264       .  A
C1541      C1542   1.526   1_455  S
C1541      C1545   1.546   1_455  S
C1542      H1549   1.086       .  S
C1542      C1543   1.372       .  D
C1543      C1544   1.549       .  S
C1544      C1546   1.540       .  S
C1544      H1550   1.111       .  S
C1545      H1551   1.086   1_655  S
C1545      C1546   1.370       .  D
C1547      H1552   1.087       .  S
C1547      C1548   1.362       .  D
C1553      C1554   1.408       .  A
C1553      C1558   1.405       .  A
C1554      C1555   1.400       .  A
C1554      H1563   1.083       .  S
C1555      C1556   1.403       .  A
C1555      H1564   1.084       .  S
C1556      C1562   1.410       .  A
C1556      C1557   1.415       .  A
C1557      C1559   1.400       .  A
C1557      C1558   1.405       .  A
C1558      H1565   1.084       .  S
C1559      C1560   1.396   1_565  A
C1559      H1566   1.084       .  S
C1560      C1561   1.407       .  A
C1560      H1567   1.083       .  S
C1561      C1562   1.408   1_545  A
C1562      H1568   1.084       .  S
C1569      C1570   1.406       .  A
C1569      C1574   1.406       .  A
C1570      C1571   1.394       .  A
C1570      H1579   1.083       .  S
C1571      C1572   1.399       .  A
C1571      H1580   1.084       .  S
C1572      C1578   1.404       .  A
C1572      C1573   1.416       .  A
C1573      C1575   1.403       .  A
C1573      C1574   1.410       .  A
C1574      H1581   1.084       .  S
C1575      C1576   1.400       .  A
C1575      H1582   1.084       .  S
C1576      C1577   1.408       .  A
C1576      H1583   1.083       .  S
C1577      C1578   1.403       .  A
C1578      H1584   1.084       .  S
C1585      C1586   1.407       .  A
C1585      C1590   1.407       .  A
C1586      C1587   1.393       .  A
C1586      H1595   1.083       .  S
C1587      C1588   1.398       .  A
C1587      H1596   1.084       .  S
C1588      C1594   1.403       .  A
C1588      C1589   1.416       .  A
C1589      C1591   1.403       .  A
C1589      C1590   1.410       .  A
C1590      H1597   1.084       .  S
C1591      C1592   1.401       .  A
C1591      H1598   1.084       .  S
C1592      C1593   1.407       .  A
C1592      H1599   1.083       .  S
C1593      C1594   1.403       .  A
C1594      H1600   1.084       .  S
C1601      C1606   1.408       .  A
C1602      C1603   1.398       .  A
C1602      H1611   1.083       .  S
C1603      C1604   1.401       .  A
C1603      H1612   1.084       .  S
C1604      C1610   1.409       .  A
C1605      C1607   1.402       .  A
C1605      C1606   1.411       .  A
C1606      H1613   1.084       .  S
C1607      C1608   1.400   1_565  A
C1607      H1614   1.084       .  S
C1608      C1609   1.408       .  A
C1608      H1615   1.083       .  S
C1610      H1616   1.084       .  S
C1617      C1622   1.407       .  A
C1618      C1619   1.400       .  A
C1618      H1627   1.083       .  S
C1619      C1620   1.402       .  A
C1619      H1628   1.084       .  S
C1620      C1626   1.410       .  A
C1621      C1623   1.401       .  A
C1621      C1622   1.408       .  A
C1622      H1629   1.084       .  S
C1623      C1624   1.398       .  A
C1623      H1630   1.084       .  S
C1624      C1625   1.407       .  A
C1624      H1631   1.083       .  S
C1626      H1632   1.084       .  S
C1633      C1638   1.405       .  A
C1634      C1635   1.395       .  A
C1634      H1643   1.083       .  S
C1635      C1636   1.399       .  A
C1635      H1644   1.084       .  S
C1636      C1642   1.405   1_655  A
C1637      C1639   1.402       .  A
C1637      C1638   1.409       .  A
C1638      H1645   1.084       .  S
C1639      C1640   1.399       .  A
C1639      H1646   1.084       .  S
C1640      C1641   1.407       .  A
C1640      H1647   1.083       .  S
C1642      H1648   1.084   1_455  S
C1649      C1654   1.407   1_455  A
C1650      C1651   1.392       .  A
C1650      H1659   1.083       .  S
C1651      C1652   1.398       .  A
C1651      H1660   1.084       .  S
C1652      C1658   1.402       .  A
C1653      C1655   1.404       .  A
C1653      C1654   1.411       .  A
C1654      H1661   1.084       .  S
C1655      C1656   1.402       .  A
C1655      H1662   1.084       .  S
C1656      C1657   1.407       .  A
C1656      H1663   1.083       .  S
C1658      H1664   1.085       .  S
C1665      C1666   1.407   1_455  A
C1666      C1667   1.399       .  A
C1666      H1675   1.083       .  S
C1667      C1668   1.402       .  A
C1667      H1676   1.084       .  S
C1668      C1674   1.407       .  A
C1669      C1671   1.401       .  A
C1669      C1670   1.404       .  A
C1670      H1677   1.084       .  S
C1671      C1672   1.396       .  A
C1671      H1678   1.084       .  S
C1672      H1679   1.083       .  S
C1673      C1674   1.407       .  A
C1674      H1680   1.084       .  S
