geometry optimzed in LAMMPS
_audit_creation_date              2020-11-30 
_audit_creation_method            'lammps2cif' 
_symmetry_space_group_name_H-M    'P1' 
_symmetry_Int_Tables_number       1 
_symmetry_cell_setting            triclinic 
loop_ 
_symmetry_equiv_pos_as_xyz 
  x,y,z 
_cell_length_a                    19.80361324 
_cell_length_b                    18.86542628492195 
_cell_length_c                    25.445409177290014 
_cell_angle_alpha                 90.00090482812294 
_cell_angle_beta                  103.85616360981854 
_cell_angle_gamma                 89.99869120141508 
loop_ 
_atom_site_label 
_atom_site_type_symbol 
_atom_site_fract_x 
_atom_site_fract_y 
_atom_site_fract_z 
_atom_site_charge 
C1          C  0.06899293  0.81829780  0.12751306     0.03500
C2          C  0.09625007  0.62504480  0.05865194     0.03500
C3          C  0.26291799  0.81829794  0.22531886     0.03500
C4          C  0.23566754  0.62504556  0.29417677     0.03500
C5          C  0.06899703  0.12504286  0.12751279     0.03500
C6          C  0.09624707  0.31829423  0.05865203     0.03500
C7          C  0.26292185  0.12504121  0.22531852     0.03500
C8          C  0.23566463  0.31829503  0.29417687     0.03500
O9          O  0.18367267  0.54606107  0.11013624    -0.66900
O10         O  0.25111556  0.39609958  0.22239930    -0.67900
O11         O  0.18367075  0.39727430  0.11013659    -0.56500
O12         O  0.25111759  0.54723702  0.22239904    -0.64900
O13         O  0.14824435  0.54606537  0.24269213    -0.64500
O14         O  0.08079761  0.39610280  0.13042973    -0.55700
O15         O  0.14824238  0.39727857  0.24269237    -0.68200
O16         O  0.08079951  0.54724010  0.13042939    -0.67000
Cu17       Cu  0.22097539  0.47166782  0.16561457     1.04600
Cu18       Cu  0.11093979  0.47167189  0.18721407     1.04300
C19         C  0.12150202  0.56983683  0.10193252     0.99300
C20         C  0.21041293  0.37350286  0.25089623     0.98400
C21         C  0.12149953  0.37350225  0.10193278     0.89800
C22         C  0.21041526  0.56983760  0.25089593     0.96800
O23         O  0.01701068  0.04606061  0.27680676    -0.66900
O24         O  0.08444613  0.89609983  0.05573483    -0.67900
O25         O  0.01700813  0.89727475  0.27680719    -0.56500
O26         O  0.08444863  0.04723628  0.05573449    -0.64900
O27         O  0.31490714  0.04606551  0.07602477    -0.64500
O28         O  0.24746702  0.89610356  0.29709816    -0.55700
O29         O  0.31490470  0.89727944  0.07602529    -0.68200
O30         O  0.24746960  0.04724019  0.29709785    -0.67000
Cu31       Cu  0.05430847  0.97166760  0.99894951     1.04600
Cu32       Cu  0.27760453  0.97167232  0.02054618     1.04300
C33         C  0.28817309  0.06983567  0.26860113     0.99300
C34         C  0.04374251  0.87350402  0.08423096     0.98400
C35         C  0.28816976  0.87350371  0.26860158     0.90600
C36         C  0.04374517  0.06983651  0.08423060     0.96800
C37         C  0.25427771  0.19342260  0.25024120    -0.07200
C38         C  0.24430780  0.24991479  0.26925225    -0.08800
C39         C  0.02827857  0.33752910  0.02416189    -0.07200
C40         C  0.30363173  0.33752858  0.32866888    -0.08800
C41         C  0.18636038  0.30999872  0.32884426    -0.07200
C42         C  0.14554927  0.30999828  0.02398251    -0.08800
C43         C  0.19495534  0.10580639  0.19082608    -0.07200
C44         C  0.13696460  0.10580732  0.16200380    -0.08800
C45         C  0.01969322  0.13333736  0.16218127    -0.07200
C46         C  0.31222704  0.13333556  0.19065166    -0.08800
C47         C  0.07763854  0.19342357  0.10258945    -0.07200
C48         C  0.08760650  0.24991434  0.08357692    -0.08800
C49         C  0.24430824  0.69342550  0.26925231    -0.07200
C50         C  0.25427629  0.74991701  0.25024136    -0.08800
C51         C  0.02828288  0.60581086  0.02416037    -0.07200
C52         C  0.30363572  0.60581137  0.32866734    -0.08800
C53         C  0.14555387  0.63334058  0.02398394    -0.07200
C54         C  0.18636472  0.63334205  0.32884572    -0.08800
C55         C  0.19495000  0.83753328  0.19082792    -0.07200
C56         C  0.13695936  0.83753284  0.16200586    -0.08800
C57         C  0.01968763  0.81000368  0.16217960    -0.07200
C58         C  0.31222147  0.81000331  0.19065036    -0.08800
C59         C  0.07763723  0.74991658  0.10258960    -0.07200
C60         C  0.08760674  0.69342502  0.08357713    -0.08800
C61         C  0.06899798  0.81829510  0.46084727     0.03500
C62         C  0.09625951  0.62504570  0.39198252     0.03500
C63         C  0.26292265  0.81829478  0.55865303     0.03500
C64         C  0.23566622  0.62504339  0.62751052     0.03500
C65         C  0.06900192  0.12504547  0.46084706     0.03500
C66         C  0.09625668  0.31829331  0.39198262     0.03500
C67         C  0.26292663  0.12504425  0.55865278     0.03500
C68         C  0.23566328  0.31829720  0.62751067     0.03500
O69         O  0.18368041  0.54606130  0.44346828    -0.66900
O70         O  0.25111740  0.39609963  0.55573288    -0.67900
O71         O  0.18367861  0.39727398  0.44346874    -0.56500
O72         O  0.25111929  0.54723676  0.55573253    -0.64900
O73         O  0.14824380  0.54606563  0.57602177    -0.64500
O74         O  0.08080322  0.39610321  0.46375818    -0.55700
O75         O  0.14824202  0.39727873  0.57602223    -0.68200
O76         O  0.08080513  0.54724007  0.46375790    -0.67000
Cu77       Cu  0.22098023  0.47166778  0.49894742     1.04600
Cu78       Cu  0.11094235  0.47167205  0.52054298     1.04300
C79         C  0.12150971  0.56983704  0.43526268     0.99300
C80         C  0.21041294  0.37350355  0.58422853     0.98400
C81         C  0.12150740  0.37350209  0.43526308     0.89800
C82         C  0.21041502  0.56983697  0.58422814     0.96800
O83         O  0.01701358  0.04606097  0.61014040    -0.66900
O84         O  0.08445017  0.89609978  0.38907060    -0.67900
O85         O  0.01701104  0.89727405  0.61014087    -0.56500
O86         O  0.08445283  0.04723649  0.38907017    -0.64900
O87         O  0.31491205  0.04606578  0.40936174    -0.64500
O88         O  0.24746856  0.89610305  0.63042970    -0.55700
O89         O  0.31490946  0.89727880  0.40936213    -0.68200
O90         O  0.24747104  0.04724042  0.63042921    -0.67000
Cu91       Cu  0.05431166  0.97166766  0.33228568     1.04600
Cu92       Cu  0.27760824  0.97167228  0.35388327     1.04300
C93         C  0.28817603  0.06983690  0.60193426     0.99300
C94         C  0.04374664  0.87350302  0.41756681     0.98400
C95         C  0.28817301  0.87350237  0.60193462     0.90600
C96         C  0.04374991  0.06983748  0.41756635     0.96800
C97         C  0.25428093  0.19342467  0.58357661    -0.07200
C98         C  0.24430864  0.24991626  0.60258749    -0.08800
C99         C  0.02828941  0.33752769  0.35749071    -0.07200
C100        C  0.30362949  0.33753203  0.66200315    -0.08800
C101        C  0.18635788  0.31000233  0.66217755    -0.07200
C102        C  0.14556113  0.30999675  0.35731497    -0.08800
C103        C  0.19496069  0.10581001  0.52415943    -0.07200
C104        C  0.13696978  0.10581028  0.49533777    -0.08800
C105        C  0.01969870  0.13334185  0.49551593    -0.07200
C106        C  0.31223280  0.13334020  0.52398686    -0.08800
C107        C  0.07764424  0.19342488  0.43592187    -0.07200
C108        C  0.08761416  0.24991415  0.41690796    -0.08800
C109        C  0.24430887  0.69342397  0.60258767    -0.07200
C110        C  0.25427972  0.74991487  0.58357667    -0.08800
C111        C  0.02829335  0.60581194  0.35748917    -0.07200
C112        C  0.30363366  0.60580782  0.66200151    -0.08800
C113        C  0.14556537  0.63334218  0.35731631    -0.07200
C114        C  0.18636218  0.63333856  0.66217900    -0.08800
C115        C  0.19495545  0.83752975  0.52416129    -0.07200
C116        C  0.13696448  0.83752957  0.49533963    -0.08800
C117        C  0.01969306  0.80999897  0.49551451    -0.07200
C118        C  0.31222728  0.80999862  0.52398532    -0.08800
C119        C  0.07764276  0.74991535  0.43592199    -0.07200
C120        C  0.08761451  0.69342520  0.41690833    -0.08800
C121        C  0.06899219  0.81829335  0.79417960     0.03500
C122        C  0.09625714  0.62504339  0.72531643     0.03500
C123        C  0.26291679  0.81829354  0.89198525     0.03500
C124        C  0.23565837  0.62504501  0.96084609     0.03500
C125        C  0.06899616  0.12504730  0.79417926     0.03500
C126        C  0.09625425  0.31829569  0.72531656     0.03500
C127        C  0.26292083  0.12504557  0.89198490     0.03500
C128        C  0.23565544  0.31829565  0.96084624     0.03500
O129        O  0.18367786  0.54606133  0.77680520    -0.66900
O130        O  0.25111166  0.39609993  0.88907025    -0.67900
O131        O  0.18367593  0.39727441  0.77680549    -0.56500
O132        O  0.25111358  0.54723682  0.88906997    -0.64900
O133        O  0.14823706  0.54606574  0.90935759    -0.64500
O134        O  0.08079952  0.39610327  0.79709317    -0.55700
O135        O  0.14823529  0.39727847  0.90935801    -0.68200
O136        O  0.08080140  0.54723990  0.79709282    -0.67000
Cu137      Cu  0.22097610  0.47166796  0.83228474     1.04600
Cu138      Cu  0.11093703  0.47167200  0.85387840     1.04300
C139        C  0.12150654  0.56983642  0.76859813     0.99300
C140        C  0.21040636  0.37350319  0.91756487     0.98400
C141        C  0.12150453  0.37350283  0.76859848     0.89800
C142        C  0.21040841  0.56983750  0.91756448     0.96800
O143        O  0.01700824  0.04606120  0.94347050    -0.66900
O144        O  0.08444784  0.89609946  0.72240477    -0.67900
O145        O  0.01700590  0.89727379  0.94347106    -0.56500
O146        O  0.08445035  0.04723676  0.72240435    -0.64900
O147        O  0.31490794  0.04606605  0.74269331    -0.64500
O148        O  0.24746454  0.89610328  0.96376157    -0.55700
O149        O  0.31490556  0.89727852  0.74269387    -0.68200
O150        O  0.24746695  0.04724050  0.96376108    -0.67000
Cu151      Cu  0.05431199  0.97166760  0.66561970     1.04600
Cu152      Cu  0.27760692  0.97167216  0.68721462     1.04300
C153        C  0.28817089  0.06983733  0.93526554     0.99300
C154        C  0.04374280  0.87350229  0.75089949     0.98400
C155        C  0.28816816  0.87350194  0.93526601     0.90600
C156        C  0.04374593  0.06983824  0.75089892     0.96800
C157        C  0.25427514  0.19342523  0.91690999    -0.07200
C158        C  0.24430177  0.24991566  0.93592203    -0.08800
C159        C  0.02828711  0.33753142  0.69082493    -0.07200
C160        C  0.30362111  0.33752982  0.99534012    -0.08800
C161        C  0.18634857  0.30999955  0.99551162    -0.07200
C162        C  0.14555887  0.31000045  0.69064866    -0.08800
C163        C  0.19495456  0.10581158  0.85749214    -0.07200
C164        C  0.13696354  0.10581262  0.82867085    -0.08800
C165        C  0.01969213  0.13334413  0.82884732    -0.07200
C166        C  0.31222610  0.13334272  0.85731828    -0.08800
C167        C  0.07763933  0.19342643  0.76925374    -0.07200
C168        C  0.08761081  0.24991561  0.75024034    -0.08800
C169        C  0.24430223  0.69342461  0.93592233    -0.07200
C170        C  0.25427368  0.74991433  0.91691003    -0.08800
C171        C  0.02829137  0.60580840  0.69082329    -0.07200
C172        C  0.30362522  0.60581026  0.99533857    -0.08800
C173        C  0.14556316  0.63333848  0.69065008    -0.07200
C174        C  0.18635303  0.63334132  0.99551309    -0.08800
C175        C  0.19494926  0.83752806  0.85749407    -0.07200
C176        C  0.13695811  0.83752742  0.82867273    -0.08800
C177        C  0.01968635  0.80999646  0.82884586    -0.07200
C178        C  0.31222048  0.80999635  0.85731687    -0.08800
C179        C  0.07763804  0.74991386  0.76925379    -0.07200
C180        C  0.08761093  0.69342388  0.75024061    -0.08800
C181        C  0.40232623  0.81829778  0.12751304     0.03500
C182        C  0.42958338  0.62504480  0.05865195     0.03500
C183        C  0.59625117  0.81829793  0.22531888     0.03500
C184        C  0.56900088  0.62504558  0.29417677     0.03500
C185        C  0.40233040  0.12504285  0.12751283     0.03500
C186        C  0.42958046  0.31829424  0.05865204     0.03500
C187        C  0.59625513  0.12504115  0.22531853     0.03500
C188        C  0.56899799  0.31829501  0.29417686     0.03500
O189        O  0.51700598  0.54606110  0.11013630    -0.66900
O190        O  0.58444894  0.39609954  0.22239932    -0.67900
O191        O  0.51700410  0.39727433  0.11013660    -0.56500
O192        O  0.58445092  0.54723696  0.22239906    -0.64900
O193        O  0.48157772  0.54606547  0.24269212    -0.64500
O194        O  0.41413088  0.39610277  0.13042969    -0.55700
O195        O  0.48157571  0.39727857  0.24269237    -0.68200
O196        O  0.41413278  0.54724008  0.13042935    -0.67000
Cu197      Cu  0.55430868  0.47166780  0.16561457     1.04600
Cu198      Cu  0.44427304  0.47167191  0.18721407     1.04300
C199        C  0.45483527  0.56983683  0.10193254     0.99300
C200        C  0.54374633  0.37350285  0.25089623     0.98400
C201        C  0.45483300  0.37350225  0.10193278     0.89800
C202        C  0.54374875  0.56983759  0.25089593     0.96800
O203        O  0.35034399  0.04606065  0.27680674    -0.66900
O204        O  0.41777950  0.89609983  0.05573489    -0.67900
O205        O  0.35034149  0.89727469  0.27680721    -0.56500
O206        O  0.41778199  0.04723628  0.05573449    -0.64900
O207        O  0.64824055  0.04606544  0.07602480    -0.64500
O208        O  0.58080023  0.89610344  0.29709818    -0.55700
O209        O  0.64823803  0.89727942  0.07602535    -0.68200
O210        O  0.58080280  0.04724027  0.29709776    -0.67000
Cu211      Cu  0.38764180  0.97166759  0.99894954     1.04600
Cu212      Cu  0.61093787  0.97167230  0.02054623     1.04300
C213        C  0.62150624  0.06983565  0.26860104     0.99300
C214        C  0.37707555  0.87350404  0.08423100     0.98400
C215        C  0.62150326  0.87350369  0.26860152     0.90600
C216        C  0.37707871  0.06983648  0.08423059     0.96800
C217        C  0.58761093  0.19342252  0.25024122    -0.07200
C218        C  0.57764128  0.24991477  0.26925228    -0.08800
C219        C  0.36161199  0.33752906  0.02416194    -0.07200
C220        C  0.63696510  0.33752855  0.32866888    -0.08800
C221        C  0.51969359  0.30999865  0.32884417    -0.07200
C222        C  0.47888270  0.30999840  0.02398244    -0.08800
C223        C  0.52828872  0.10580639  0.19082612    -0.07200
C224        C  0.47029799  0.10580731  0.16200392    -0.08800
C225        C  0.35302655  0.13333743  0.16218120    -0.07200
C226        C  0.64556047  0.13333543  0.19065169    -0.08800
C227        C  0.41097183  0.19342358  0.10258947    -0.07200
C228        C  0.42093978  0.24991431  0.08357693    -0.08800
C229        C  0.57764149  0.69342549  0.26925232    -0.07200
C230        C  0.58760974  0.74991699  0.25024132    -0.08800
C231        C  0.36161610  0.60581083  0.02416042    -0.07200
C232        C  0.63696914  0.60581137  0.32866731    -0.08800
C233        C  0.47888716  0.63334063  0.02398399    -0.07200
C234        C  0.51969802  0.63334208  0.32884573    -0.08800
C235        C  0.52828339  0.83753324  0.19082793    -0.07200
C236        C  0.47029255  0.83753278  0.16200584    -0.08800
C237        C  0.35302082  0.81000370  0.16217961    -0.07200
C238        C  0.64555486  0.81000335  0.19065037    -0.08800
C239        C  0.41097043  0.74991657  0.10258959    -0.07200
C240        C  0.42093996  0.69342500  0.08357711    -0.08800
C241        C  0.40233118  0.81829509  0.46084727     0.03500
C242        C  0.42959289  0.62504570  0.39198247     0.03500
C243        C  0.59625589  0.81829479  0.55865298     0.03500
C244        C  0.56899954  0.62504336  0.62751059     0.03500
C245        C  0.40233522  0.12504548  0.46084709     0.03500
C246        C  0.42959002  0.31829334  0.39198262     0.03500
C247        C  0.59625996  0.12504426  0.55865277     0.03500
C248        C  0.56899653  0.31829721  0.62751064     0.03500
O249        O  0.51701374  0.54606133  0.44346828    -0.66900
O250        O  0.58445082  0.39609958  0.55573286    -0.67900
O251        O  0.51701190  0.39727400  0.44346870    -0.56500
O252        O  0.58445265  0.54723681  0.55573256    -0.64900
O253        O  0.48157714  0.54606560  0.57602174    -0.64500
O254        O  0.41413651  0.39610315  0.46375820    -0.55700
O255        O  0.48157540  0.39727877  0.57602226    -0.68200
O256        O  0.41413852  0.54724004  0.46375794    -0.67000
Cu257      Cu  0.55431364  0.47166779  0.49894739     1.04600
Cu258      Cu  0.44427573  0.47167201  0.52054301     1.04300
C259        C  0.45484292  0.56983704  0.43526272     0.99300
C260        C  0.54374648  0.37350354  0.58422850     0.98400
C261        C  0.45484054  0.37350208  0.43526310     0.89800
C262        C  0.54374874  0.56983694  0.58422810     0.96800
O263        O  0.35034680  0.04606092  0.61014040    -0.66900
O264        O  0.41778359  0.89609979  0.38907063    -0.67900
O265        O  0.35034431  0.89727401  0.61014086    -0.56500
O266        O  0.41778616  0.04723652  0.38907016    -0.64900
O267        O  0.64824520  0.04606581  0.40936170    -0.64500
O268        O  0.58080170  0.89610303  0.63042970    -0.55700
O269        O  0.64824269  0.89727881  0.40936221    -0.68200
O270        O  0.58080430  0.04724044  0.63042919    -0.67000
Cu271      Cu  0.38764495  0.97166767  0.33228567     1.04600
Cu272      Cu  0.61094149  0.97167226  0.35388323     1.04300
C273        C  0.62150928  0.06983688  0.60193424     0.99300
C274        C  0.37708023  0.87350303  0.41756672     0.98400
C275        C  0.62150620  0.87350238  0.60193463     0.90600
C276        C  0.37708338  0.06983746  0.41756633     0.96800
C277        C  0.58761443  0.19342468  0.58357663    -0.07200
C278        C  0.57764190  0.24991620  0.60258749    -0.08800
C279        C  0.36162261  0.33752775  0.35749071    -0.07200
C280        C  0.63696288  0.33753213  0.66200309    -0.08800
C281        C  0.51969123  0.31000236  0.66217749    -0.07200
C282        C  0.47889444  0.30999666  0.35731504    -0.08800
C283        C  0.52829398  0.10580999  0.52415942    -0.07200
C284        C  0.47030301  0.10581032  0.49533786    -0.08800
C285        C  0.35303202  0.13334176  0.49551591    -0.07200
C286        C  0.64556613  0.13334021  0.52398681    -0.08800
C287        C  0.41097749  0.19342493  0.43592184    -0.07200
C288        C  0.42094741  0.24991417  0.41690795    -0.08800
C289        C  0.57764231  0.69342397  0.60258771    -0.07200
C290        C  0.58761284  0.74991485  0.58357669    -0.08800
C291        C  0.36162675  0.60581190  0.35748906    -0.07200
C292        C  0.63696714  0.60580793  0.66200162    -0.08800
C293        C  0.47889861  0.63334228  0.35731637    -0.07200
C294        C  0.51969557  0.63333856  0.66217892    -0.08800
C295        C  0.52828866  0.83752966  0.52416124    -0.07200
C296        C  0.47029768  0.83752948  0.49533968    -0.08800
C297        C  0.35302647  0.80999903  0.49551442    -0.07200
C298        C  0.64556068  0.80999866  0.52398529    -0.08800
C299        C  0.41097607  0.74991528  0.43592194    -0.07200
C300        C  0.42094787  0.69342522  0.41690835    -0.08800
C301        C  0.40232551  0.81829337  0.79417954     0.03500
C302        C  0.42959050  0.62504338  0.72531642     0.03500
C303        C  0.59625020  0.81829354  0.89198527     0.03500
C304        C  0.56899167  0.62504501  0.96084618     0.03500
C305        C  0.40232953  0.12504726  0.79417928     0.03500
C306        C  0.42958761  0.31829567  0.72531656     0.03500
C307        C  0.59625416  0.12504558  0.89198492     0.03500
C308        C  0.56898880  0.31829564  0.96084620     0.03500
O309        O  0.51701131  0.54606136  0.77680520    -0.66900
O310        O  0.58444520  0.39609988  0.88907031    -0.67900
O311        O  0.51700938  0.39727440  0.77680547    -0.56500
O312        O  0.58444704  0.54723687  0.88906999    -0.64900
O313        O  0.48157052  0.54606569  0.90935755    -0.64500
O314        O  0.41413299  0.39610326  0.79709321    -0.55700
O315        O  0.48156874  0.39727852  0.90935798    -0.68200
O316        O  0.41413482  0.54723987  0.79709280    -0.67000
Cu317      Cu  0.55430954  0.47166793  0.83228475     1.04600
Cu318      Cu  0.44427042  0.47167202  0.85387841     1.04300
C319        C  0.45484002  0.56983641  0.76859812     0.99300
C320        C  0.54373973  0.37350318  0.91756487     0.98400
C321        C  0.45483785  0.37350287  0.76859850     0.89800
C322        C  0.54374207  0.56983748  0.91756447     0.96800
O323        O  0.35034163  0.04606121  0.94347052    -0.66900
O324        O  0.41778113  0.89609949  0.72240475    -0.67900
O325        O  0.35033931  0.89727379  0.94347107    -0.56500
O326        O  0.41778362  0.04723677  0.72240434    -0.64900
O327        O  0.64824122  0.04606601  0.74269330    -0.64500
O328        O  0.58079784  0.89610326  0.96376158    -0.55700
O329        O  0.64823871  0.89727846  0.74269390    -0.68200
O330        O  0.58080042  0.04724050  0.96376113    -0.67000
Cu331      Cu  0.38764526  0.97166759  0.66561968     1.04600
Cu332      Cu  0.61094019  0.97167214  0.68721462     1.04300
C333        C  0.62150461  0.06983739  0.93526549     0.99300
C334        C  0.37707626  0.87350231  0.75089948     0.98400
C335        C  0.62150106  0.87350198  0.93526606     0.90600
C336        C  0.37707903  0.06983827  0.75089898     0.96800
C337        C  0.58760841  0.19342518  0.91691000    -0.07200
C338        C  0.57763525  0.24991570  0.93592208    -0.08800
C339        C  0.36162050  0.33753132  0.69082484    -0.07200
C340        C  0.63695427  0.33752981  0.99534008    -0.08800
C341        C  0.51968200  0.30999963  0.99551163    -0.07200
C342        C  0.47889230  0.31000053  0.69064874    -0.08800
C343        C  0.52828795  0.10581152  0.85749227    -0.07200
C344        C  0.47029690  0.10581252  0.82867081    -0.08800
C345        C  0.35302541  0.13334422  0.82884736    -0.07200
C346        C  0.64555958  0.13334273  0.85731822    -0.08800
C347        C  0.41097275  0.19342637  0.76925378    -0.07200
C348        C  0.42094422  0.24991556  0.75024034    -0.08800
C349        C  0.57763538  0.69342468  0.93592233    -0.07200
C350        C  0.58760704  0.74991424  0.91691003    -0.08800
C351        C  0.36162454  0.60580836  0.69082333    -0.07200
C352        C  0.63695870  0.60581028  0.99533872    -0.08800
C353        C  0.47889644  0.63333847  0.69065006    -0.07200
C354        C  0.51968638  0.63334134  0.99551304    -0.08800
C355        C  0.52828242  0.83752810  0.85749410    -0.07200
C356        C  0.47029152  0.83752749  0.82867271    -0.08800
C357        C  0.35301963  0.80999651  0.82884579    -0.07200
C358        C  0.64555376  0.80999638  0.85731694    -0.08800
C359        C  0.41097124  0.74991383  0.76925379    -0.07200
C360        C  0.42094433  0.69342387  0.75024061    -0.08800
C361        C  0.73565954  0.81829776  0.12751305     0.03500
C362        C  0.76291679  0.62504482  0.05865196     0.03500
C363        C  0.92958465  0.81829792  0.22531879     0.03500
C364        C  0.90233416  0.62504555  0.29417674     0.03500
C365        C  0.73566376  0.12504284  0.12751281     0.03500
C366        C  0.76291365  0.31829423  0.05865202     0.03500
C367        C  0.92958856  0.12504116  0.22531854     0.03500
C368        C  0.90233129  0.31829500  0.29417689     0.03500
O369        O  0.85033927  0.54606105  0.11013628    -0.66900
O370        O  0.91778215  0.39609961  0.22239929    -0.67900
O371        O  0.85033733  0.39727432  0.11013662    -0.56500
O372        O  0.91778417  0.54723699  0.22239906    -0.64900
O373        O  0.81491092  0.54606540  0.24269212    -0.64500
O374        O  0.74746417  0.39610282  0.13042972    -0.55700
O375        O  0.81490897  0.39727854  0.24269235    -0.68200
O376        O  0.74746605  0.54724012  0.13042935    -0.67000
Cu377      Cu  0.88764202  0.47166784  0.16561457     1.04600
Cu378      Cu  0.77760641  0.47167190  0.18721405     1.04300
C379        C  0.78816848  0.56983686  0.10193255     0.99300
C380        C  0.87707950  0.37350286  0.25089623     0.98400
C381        C  0.78816645  0.37350224  0.10193274     0.89800
C382        C  0.87708193  0.56983760  0.25089592     0.96800
O383        O  0.68367721  0.04606066  0.27680676    -0.66900
O384        O  0.75111280  0.89609981  0.05573487    -0.67900
O385        O  0.68367471  0.89727471  0.27680716    -0.56500
O386        O  0.75111543  0.04723629  0.05573447    -0.64900
O387        O  0.98157377  0.04606548  0.07602479    -0.64500
O388        O  0.91413365  0.89610342  0.29709818    -0.55700
O389        O  0.98157139  0.89727941  0.07602533    -0.68200
O390        O  0.91413623  0.04724029  0.29709778    -0.67000
Cu391      Cu  0.72097516  0.97166757  0.99894952     1.04600
Cu392      Cu  0.94427119  0.97167228  0.02054622     1.04300
C393        C  0.95483979  0.06983565  0.26860106     0.99300
C394        C  0.71040891  0.87350398  0.08423103     0.98400
C395        C  0.95483632  0.87350370  0.26860158     0.90600
C396        C  0.71041193  0.06983648  0.08423061     0.96800
C397        C  0.92094446  0.19342254  0.25024124    -0.07200
C398        C  0.91097449  0.24991477  0.26925225    -0.08800
C399        C  0.69494522  0.33752908  0.02416193    -0.07200
C400        C  0.97029841  0.33752855  0.32866890    -0.08800
C401        C  0.85302699  0.30999865  0.32884428    -0.07200
C402        C  0.81221617  0.30999831  0.02398247    -0.08800
C403        C  0.86162210  0.10580637  0.19082608    -0.07200
C404        C  0.80363131  0.10580733  0.16200384    -0.08800
C405        C  0.68635987  0.13333730  0.16218123    -0.07200
C406        C  0.97889381  0.13333550  0.19065172    -0.08800
C407        C  0.74430523  0.19342354  0.10258949    -0.07200
C408        C  0.75427315  0.24991439  0.08357693    -0.08800
C409        C  0.91097494  0.69342549  0.26925230    -0.07200
C410        C  0.92094300  0.74991697  0.25024134    -0.08800
C411        C  0.69494952  0.60581080  0.02416043    -0.07200
C412        C  0.97030246  0.60581138  0.32866731    -0.08800
C413        C  0.81222042  0.63334064  0.02398400    -0.07200
C414        C  0.85303138  0.63334208  0.32884570    -0.08800
C415        C  0.86161664  0.83753319  0.19082782    -0.07200
C416        C  0.80362589  0.83753278  0.16200580    -0.08800
C417        C  0.68635409  0.81000368  0.16217968    -0.07200
C418        C  0.97888818  0.81000332  0.19065042    -0.08800
C419        C  0.74430390  0.74991660  0.10258960    -0.07200
C420        C  0.75427325  0.69342500  0.08357712    -0.08800
C421        C  0.73566458  0.81829511  0.46084726     0.03500
C422        C  0.76292622  0.62504572  0.39198253     0.03500
C423        C  0.92958924  0.81829479  0.55865304     0.03500
C424        C  0.90233296  0.62504339  0.62751054     0.03500
C425        C  0.73566846  0.12504550  0.46084706     0.03500
C426        C  0.76292330  0.31829330  0.39198262     0.03500
C427        C  0.92959328  0.12504428  0.55865276     0.03500
C428        C  0.90232993  0.31829719  0.62751064     0.03500
O429        O  0.85034712  0.54606130  0.44346827    -0.66900
O430        O  0.91778410  0.39609960  0.55573291    -0.67900
O431        O  0.85034526  0.39727391  0.44346871    -0.56500
O432        O  0.91778601  0.54723677  0.55573253    -0.64900
O433        O  0.81491053  0.54606564  0.57602176    -0.64500
O434        O  0.74746990  0.39610322  0.46375819    -0.55700
O435        O  0.81490869  0.39727876  0.57602222    -0.68200
O436        O  0.74747185  0.54724007  0.46375790    -0.67000
Cu437      Cu  0.88764695  0.47166774  0.49894742     1.04600
Cu438      Cu  0.77760907  0.47167206  0.52054297     1.04300
C439        C  0.78817645  0.56983703  0.43526268     0.99300
C440        C  0.87707962  0.37350351  0.58422854     0.98400
C441        C  0.78817402  0.37350208  0.43526306     0.89800
C442        C  0.87708172  0.56983695  0.58422815     0.96800
O443        O  0.68368005  0.04606096  0.61014038    -0.66900
O444        O  0.75111682  0.89609975  0.38907062    -0.67900
O445        O  0.68367747  0.89727409  0.61014090    -0.56500
O446        O  0.75111937  0.04723648  0.38907023    -0.64900
O447        O  0.98157868  0.04606581  0.40936173    -0.64500
O448        O  0.91413525  0.89610305  0.63042971    -0.55700
O449        O  0.98157609  0.89727877  0.40936223    -0.68200
O450        O  0.91413783  0.04724040  0.63042918    -0.67000
Cu451      Cu  0.72097830  0.97166767  0.33228569     1.04600
Cu452      Cu  0.94427482  0.97167227  0.35388326     1.04300
C453        C  0.95484283  0.06983691  0.60193422     0.99300
C454        C  0.71041334  0.87350303  0.41756677     0.98400
C455        C  0.95483996  0.87350237  0.60193458     0.90600
C456        C  0.71041641  0.06983748  0.41756636     0.96800
C457        C  0.92094769  0.19342465  0.58357661    -0.07200
C458        C  0.91097531  0.24991625  0.60258751    -0.08800
C459        C  0.69495604  0.33752778  0.35749069    -0.07200
C460        C  0.97029621  0.33753207  0.66200314    -0.08800
C461        C  0.85302448  0.31000231  0.66217747    -0.07200
C462        C  0.81222771  0.30999664  0.35731496    -0.08800
C463        C  0.86162732  0.10581009  0.52415937    -0.07200
C464        C  0.80363632  0.10581040  0.49533779    -0.08800
C465        C  0.68636537  0.13334179  0.49551594    -0.07200
C466        C  0.97889953  0.13334025  0.52398684    -0.08800
C467        C  0.74431079  0.19342493  0.43592186    -0.07200
C468        C  0.75428077  0.24991416  0.41690794    -0.08800
C469        C  0.91097556  0.69342393  0.60258769    -0.07200
C470        C  0.92094638  0.74991489  0.58357666    -0.08800
C471        C  0.69496005  0.60581194  0.35748915    -0.07200
C472        C  0.97030040  0.60580786  0.66200155    -0.08800
C473        C  0.81223203  0.63334221  0.35731631    -0.07200
C474        C  0.85302882  0.63333852  0.66217904    -0.08800
C475        C  0.86162207  0.83752970  0.52416130    -0.07200
C476        C  0.80363103  0.83752954  0.49533967    -0.08800
C477        C  0.68635985  0.80999900  0.49551444    -0.07200
C478        C  0.97889400  0.80999862  0.52398528    -0.08800
C479        C  0.74430940  0.74991532  0.43592199    -0.07200
C480        C  0.75428119  0.69342522  0.41690835    -0.08800
C481        C  0.73565872  0.81829333  0.79417956     0.03500
C482        C  0.76292376  0.62504341  0.72531649     0.03500
C483        C  0.92958338  0.81829355  0.89198522     0.03500
C484        C  0.90232499  0.62504501  0.96084616     0.03500
C485        C  0.73566288  0.12504725  0.79417924     0.03500
C486        C  0.76292092  0.31829571  0.72531658     0.03500
C487        C  0.92958752  0.12504561  0.89198491     0.03500
C488        C  0.90232212  0.31829566  0.96084621     0.03500
O489        O  0.85034451  0.54606142  0.77680515    -0.66900
O490        O  0.91777835  0.39609988  0.88907024    -0.67900
O491        O  0.85034263  0.39727448  0.77680548    -0.56500
O492        O  0.91778025  0.54723678  0.88907004    -0.64900
O493        O  0.81490375  0.54606578  0.90935759    -0.64500
O494        O  0.74746618  0.39610322  0.79709319    -0.55700
O495        O  0.81490199  0.39727851  0.90935802    -0.68200
O496        O  0.74746806  0.54723982  0.79709282    -0.67000
Cu497      Cu  0.88764273  0.47166795  0.83228474     1.04600
Cu498      Cu  0.77760365  0.47167200  0.85387841     1.04300
C499        C  0.78817346  0.56983651  0.76859810     0.99300
C500        C  0.87707308  0.37350318  0.91756487     0.98400
C501        C  0.78817117  0.37350285  0.76859849     0.89800
C502        C  0.87707525  0.56983746  0.91756451     0.96800
O503        O  0.68367505  0.04606122  0.94347046    -0.66900
O504        O  0.75111427  0.89609949  0.72240475    -0.67900
O505        O  0.68367257  0.89727381  0.94347104    -0.56500
O506        O  0.75111689  0.04723674  0.72240430    -0.64900
O507        O  0.98157465  0.04606602  0.74269326    -0.64500
O508        O  0.91413113  0.89610326  0.96376158    -0.55700
O509        O  0.98157221  0.89727854  0.74269385    -0.68200
O510        O  0.91413360  0.04724050  0.96376112    -0.67000
Cu511      Cu  0.72097852  0.97166762  0.66561966     1.04600
Cu512      Cu  0.94427357  0.97167216  0.68721459     1.04300
C513        C  0.95483755  0.06983734  0.93526555     0.99300
C514        C  0.71040948  0.87350228  0.75089946     0.98400
C515        C  0.95483462  0.87350196  0.93526603     0.90600
C516        C  0.71041252  0.06983822  0.75089892     0.96800
C517        C  0.92094181  0.19342524  0.91691004    -0.07200
C518        C  0.91096842  0.24991566  0.93592207    -0.08800
C519        C  0.69495372  0.33753144  0.69082490    -0.07200
C520        C  0.97028772  0.33752983  0.99534013    -0.08800
C521        C  0.85301538  0.30999957  0.99551164    -0.07200
C522        C  0.81222564  0.31000047  0.69064871    -0.08800
C523        C  0.86162124  0.10581159  0.85749220    -0.07200
C524        C  0.80363023  0.10581259  0.82867087    -0.08800
C525        C  0.68635882  0.13334413  0.82884730    -0.07200
C526        C  0.97889274  0.13334271  0.85731827    -0.08800
C527        C  0.74430603  0.19342640  0.76925374    -0.07200
C528        C  0.75427744  0.24991561  0.75024034    -0.08800
C529        C  0.91096871  0.69342466  0.93592232    -0.07200
C530        C  0.92094039  0.74991426  0.91691002    -0.08800
C531        C  0.69495802  0.60580843  0.69082336    -0.07200
C532        C  0.97029193  0.60581030  0.99533863    -0.08800
C533        C  0.81222988  0.63333840  0.69065008    -0.07200
C534        C  0.85301967  0.63334131  0.99551308    -0.08800
C535        C  0.86161577  0.83752812  0.85749399    -0.07200
C536        C  0.80362470  0.83752752  0.82867271    -0.08800
C537        C  0.68635308  0.80999644  0.82884580    -0.07200
C538        C  0.97888710  0.80999633  0.85731688    -0.08800
C539        C  0.74430466  0.74991388  0.76925379    -0.07200
C540        C  0.75427761  0.69342389  0.75024061    -0.08800
loop_ 
_geom_bond_atom_site_label_1 
_geom_bond_atom_site_label_2 
_geom_bond_distance 
_geom_bond_site_symmetry_2 
_ccdc_geom_bond_type 
C1           C34   1.511       .  S
C1           C56   1.466       .  S
C1           C57   1.473       .  S
C1           C59   1.465       .  S
C2           C19   1.511       .  S
C2           C51   1.466       .  S
C2           C53   1.473       .  S
C2           C60   1.465       .  S
C3           C35   1.511       .  S
C3           C50   1.465       .  S
C3           C55   1.466       .  S
C3           C58   1.473       .  S
C4           C22   1.511       .  S
C4           C49   1.465       .  S
C4           C52   1.466       .  S
C4           C54   1.473       .  S
C5           C36   1.511       .  S
C5           C44   1.466       .  S
C5           C45   1.473       .  S
C5           C47   1.465       .  S
C6           C21   1.511       .  S
C6           C39   1.466       .  S
C6           C42   1.473       .  S
C6           C48   1.465       .  S
C7           C33   1.511       .  S
C7           C37   1.465       .  S
C7           C43   1.466       .  S
C7           C46   1.473       .  S
C8           C20   1.511       .  S
C8           C38   1.465       .  S
C8           C40   1.466       .  S
C8           C41   1.473       .  S
O9          Cu17   2.002       .  S
O9           C19   1.280       .  A
O10         Cu17   2.016       .  S
O10          C20   1.280       .  A
O11         Cu17   2.002       .  S
O11          C21   1.280       .  A
O12         Cu17   2.016       .  S
O12          C22   1.280       .  A
O13         Cu18   2.002       .  S
O13          C22   1.280       .  A
O14         Cu18   2.016       .  S
O14          C21   1.280       .  A
O15         Cu18   2.002       .  S
O15          C20   1.280       .  A
O16         Cu18   2.016       .  S
O16          C19   1.280       .  A
Cu17        Cu18   2.372       .  S
O23         Cu91   2.002   1_545  S
O23         C393   1.280   1_455  A
O24         Cu31   2.016   1_554  S
O24          C34   1.280       .  A
O25         Cu91   2.002       .  S
O25         C395   1.280   1_455  A
O26         Cu31   2.016   1_544  S
O26          C36   1.280       .  A
O27         Cu32   2.002   1_545  S
O27         C216   1.280       .  A
O28         Cu92   2.016       .  S
O28          C35   1.280       .  A
O29         Cu32   2.002       .  S
O29         C214   1.280       .  A
O30         Cu92   2.016   1_545  S
O30          C33   1.280       .  A
Cu31        O143   2.002   1_565  S
Cu31        O145   2.002       .  S
Cu31       Cu392   2.372   1_456  S
Cu32        O148   2.016   1_554  S
Cu32        O150   2.016   1_564  S
Cu32       Cu211   2.372   1_554  S
C33         O203   1.280       .  A
C34         O389   1.280   1_455  A
C35         O205   1.280       .  A
C36         O387   1.280   1_455  A
C37          C38   1.206       .  T
C39         C520   1.206   1_454  T
C40         C279   1.206       .  T
C41         C102   1.207       .  T
C42         C161   1.207   1_554  T
C43          C44   1.206       .  T
C45         C406   1.207   1_455  T
C46         C225   1.207       .  T
C47          C48   1.206       .  T
C49          C50   1.206       .  T
C51         C532   1.206   1_454  T
C52         C291   1.206       .  T
C53         C174   1.207   1_554  T
C54         C113   1.207       .  T
C55          C56   1.206       .  T
C57         C418   1.207   1_455  T
C58         C237   1.207       .  T
C59          C60   1.206       .  T
C61          C94   1.511       .  S
C61         C116   1.466       .  S
C61         C117   1.473       .  S
C61         C119   1.465       .  S
C62          C79   1.511       .  S
C62         C111   1.466       .  S
C62         C113   1.473       .  S
C62         C120   1.465       .  S
C63          C95   1.511       .  S
C63         C110   1.465       .  S
C63         C115   1.466       .  S
C63         C118   1.473       .  S
C64          C82   1.511       .  S
C64         C109   1.465       .  S
C64         C112   1.466       .  S
C64         C114   1.473       .  S
C65          C96   1.511       .  S
C65         C104   1.466       .  S
C65         C105   1.473       .  S
C65         C107   1.465       .  S
C66          C81   1.511       .  S
C66          C99   1.466       .  S
C66         C102   1.473       .  S
C66         C108   1.465       .  S
C67          C93   1.511       .  S
C67          C97   1.465       .  S
C67         C103   1.466       .  S
C67         C106   1.473       .  S
C68          C80   1.511       .  S
C68          C98   1.465       .  S
C68         C100   1.466       .  S
C68         C101   1.473       .  S
O69         Cu77   2.002       .  S
O69          C79   1.280       .  A
O70         Cu77   2.016       .  S
O70          C80   1.280       .  A
O71         Cu77   2.002       .  S
O71          C81   1.280       .  A
O72         Cu77   2.016       .  S
O72          C82   1.280       .  A
O73         Cu78   2.002       .  S
O73          C82   1.280       .  A
O74         Cu78   2.016       .  S
O74          C81   1.280       .  A
O75         Cu78   2.002       .  S
O75          C80   1.280       .  A
O76         Cu78   2.016       .  S
O76          C79   1.280       .  A
Cu77        Cu78   2.372       .  S
O83        Cu151   2.002   1_545  S
O83         C453   1.280   1_455  A
O84         Cu91   2.016       .  S
O84          C94   1.280       .  A
O85        Cu151   2.002       .  S
O85         C455   1.280   1_455  A
O86         Cu91   2.016   1_545  S
O86          C96   1.280       .  A
O87         Cu92   2.002   1_545  S
O87         C276   1.280       .  A
O88        Cu152   2.016       .  S
O88          C95   1.280       .  A
O89         Cu92   2.002       .  S
O89         C274   1.280       .  A
O90        Cu152   2.016   1_545  S
O90          C93   1.280       .  A
Cu91       Cu452   2.372   1_455  S
Cu92       Cu271   2.372       .  S
C93         O263   1.280       .  A
C94         O449   1.280   1_455  A
C95         O265   1.280       .  A
C96         O447   1.280   1_455  A
C97          C98   1.206       .  T
C99         C400   1.206   1_455  T
C100        C339   1.206       .  T
C101        C162   1.207       .  T
C103        C104   1.206       .  T
C105        C466   1.207   1_455  T
C106        C285   1.207       .  T
C107        C108   1.206       .  T
C109        C110   1.206       .  T
C111        C412   1.206   1_455  T
C112        C351   1.206       .  T
C114        C173   1.207       .  T
C115        C116   1.206       .  T
C117        C478   1.207   1_455  T
C118        C297   1.207       .  T
C119        C120   1.206       .  T
C121        C154   1.511       .  S
C121        C176   1.466       .  S
C121        C177   1.473       .  S
C121        C179   1.465       .  S
C122        C139   1.511       .  S
C122        C171   1.466       .  S
C122        C173   1.473       .  S
C122        C180   1.465       .  S
C123        C155   1.511       .  S
C123        C170   1.465       .  S
C123        C175   1.466       .  S
C123        C178   1.473       .  S
C124        C142   1.511       .  S
C124        C169   1.465       .  S
C124        C172   1.466       .  S
C124        C174   1.473       .  S
C125        C156   1.511       .  S
C125        C164   1.466       .  S
C125        C165   1.473       .  S
C125        C167   1.466       .  S
C126        C141   1.511       .  S
C126        C159   1.466       .  S
C126        C162   1.473       .  S
C126        C168   1.465       .  S
C127        C153   1.511       .  S
C127        C157   1.465       .  S
C127        C163   1.466       .  S
C127        C166   1.473       .  S
C128        C140   1.511       .  S
C128        C158   1.465       .  S
C128        C160   1.466       .  S
C128        C161   1.473       .  S
O129       Cu137   2.002       .  S
O129        C139   1.280       .  A
O130       Cu137   2.016       .  S
O130        C140   1.280       .  A
O131       Cu137   2.002       .  S
O131        C141   1.280       .  A
O132       Cu137   2.016       .  S
O132        C142   1.280       .  A
O133       Cu138   2.002       .  S
O133        C142   1.280       .  A
O134       Cu138   2.016       .  S
O134        C141   1.280       .  A
O135       Cu138   2.002       .  S
O135        C140   1.280       .  A
O136       Cu138   2.016       .  S
O136        C139   1.280       .  A
Cu137      Cu138   2.372       .  S
O143        C513   1.280   1_455  A
O144       Cu151   2.016       .  S
O144        C154   1.280       .  A
O145        C515   1.280   1_455  A
O146       Cu151   2.016   1_545  S
O146        C156   1.280       .  A
O147       Cu152   2.002   1_545  S
O147        C336   1.280       .  A
O148        C155   1.280       .  A
O149       Cu152   2.002       .  S
O149        C334   1.280       .  A
O150        C153   1.280       .  A
Cu151      Cu512   2.372   1_455  S
Cu152      Cu331   2.372       .  S
C153        O323   1.280       .  A
C154        O509   1.280   1_455  A
C155        O325   1.280       .  A
C156        O507   1.280   1_455  A
C157        C158   1.206       .  T
C159        C460   1.206   1_455  T
C160        C219   1.206   1_556  T
C163        C164   1.206       .  T
C165        C526   1.207   1_455  T
C166        C345   1.207       .  T
C167        C168   1.206       .  T
C169        C170   1.206       .  T
C171        C472   1.206   1_455  T
C172        C231   1.206   1_556  T
C175        C176   1.206       .  T
C177        C538   1.207   1_455  T
C178        C357   1.207       .  T
C179        C180   1.206       .  T
C181        C214   1.511       .  S
C181        C236   1.466       .  S
C181        C237   1.473       .  S
C181        C239   1.465       .  S
C182        C199   1.511       .  S
C182        C231   1.466       .  S
C182        C233   1.473       .  S
C182        C240   1.465       .  S
C183        C215   1.511       .  S
C183        C230   1.465       .  S
C183        C235   1.466       .  S
C183        C238   1.473       .  S
C184        C202   1.511       .  S
C184        C229   1.465       .  S
C184        C232   1.466       .  S
C184        C234   1.473       .  S
C185        C216   1.511       .  S
C185        C224   1.466       .  S
C185        C225   1.473       .  S
C185        C227   1.465       .  S
C186        C201   1.511       .  S
C186        C219   1.466       .  S
C186        C222   1.473       .  S
C186        C228   1.465       .  S
C187        C213   1.511       .  S
C187        C217   1.465       .  S
C187        C223   1.466       .  S
C187        C226   1.473       .  S
C188        C200   1.511       .  S
C188        C218   1.465       .  S
C188        C220   1.466       .  S
C188        C221   1.473       .  S
O189       Cu197   2.002       .  S
O189        C199   1.280       .  A
O190       Cu197   2.016       .  S
O190        C200   1.280       .  A
O191       Cu197   2.002       .  S
O191        C201   1.280       .  A
O192       Cu197   2.016       .  S
O192        C202   1.280       .  A
O193       Cu198   2.002       .  S
O193        C202   1.280       .  A
O194       Cu198   2.016       .  S
O194        C201   1.280       .  A
O195       Cu198   2.002       .  S
O195        C200   1.280       .  A
O196       Cu198   2.016       .  S
O196        C199   1.280       .  A
Cu197      Cu198   2.372       .  S
O203       Cu271   2.002   1_545  S
O204       Cu211   2.016   1_554  S
O204        C214   1.280       .  A
O205       Cu271   2.002       .  S
O206       Cu211   2.016   1_544  S
O206        C216   1.280       .  A
O207       Cu212   2.002   1_545  S
O207        C396   1.280       .  A
O208       Cu272   2.016       .  S
O208        C215   1.280       .  A
O209       Cu212   2.002       .  S
O209        C394   1.280       .  A
O210       Cu272   2.016   1_545  S
O210        C213   1.280       .  A
Cu211       O323   2.002   1_565  S
Cu211       O325   2.002       .  S
Cu212       O328   2.016   1_554  S
Cu212       O330   2.016   1_564  S
Cu212      Cu391   2.372   1_554  S
C213        O383   1.280       .  A
C215        O385   1.280       .  A
C217        C218   1.206       .  T
C220        C459   1.206       .  T
C221        C282   1.207       .  T
C222        C341   1.207   1_554  T
C223        C224   1.206       .  T
C226        C405   1.207       .  T
C227        C228   1.206       .  T
C229        C230   1.206       .  T
C232        C471   1.206       .  T
C233        C354   1.207   1_554  T
C234        C293   1.207       .  T
C235        C236   1.206       .  T
C238        C417   1.207       .  T
C239        C240   1.206       .  T
C241        C274   1.511       .  S
C241        C296   1.466       .  S
C241        C297   1.473       .  S
C241        C299   1.465       .  S
C242        C259   1.511       .  S
C242        C291   1.466       .  S
C242        C293   1.473       .  S
C242        C300   1.465       .  S
C243        C275   1.511       .  S
C243        C290   1.465       .  S
C243        C295   1.466       .  S
C243        C298   1.473       .  S
C244        C262   1.511       .  S
C244        C289   1.465       .  S
C244        C292   1.466       .  S
C244        C294   1.473       .  S
C245        C276   1.511       .  S
C245        C284   1.466       .  S
C245        C285   1.473       .  S
C245        C287   1.465       .  S
C246        C261   1.511       .  S
C246        C279   1.466       .  S
C246        C282   1.473       .  S
C246        C288   1.465       .  S
C247        C273   1.511       .  S
C247        C277   1.465       .  S
C247        C283   1.466       .  S
C247        C286   1.473       .  S
C248        C260   1.511       .  S
C248        C278   1.465       .  S
C248        C280   1.466       .  S
C248        C281   1.473       .  S
O249       Cu257   2.002       .  S
O249        C259   1.280       .  A
O250       Cu257   2.016       .  S
O250        C260   1.280       .  A
O251       Cu257   2.002       .  S
O251        C261   1.280       .  A
O252       Cu257   2.016       .  S
O252        C262   1.280       .  A
O253       Cu258   2.002       .  S
O253        C262   1.280       .  A
O254       Cu258   2.016       .  S
O254        C261   1.280       .  A
O255       Cu258   2.002       .  S
O255        C260   1.280       .  A
O256       Cu258   2.016       .  S
O256        C259   1.280       .  A
Cu257      Cu258   2.372       .  S
O263       Cu331   2.002   1_545  S
O264       Cu271   2.016       .  S
O264        C274   1.280       .  A
O265       Cu331   2.002       .  S
O266       Cu271   2.016   1_545  S
O266        C276   1.280       .  A
O267       Cu272   2.002   1_545  S
O267        C456   1.280       .  A
O268       Cu332   2.016       .  S
O268        C275   1.280       .  A
O269       Cu272   2.002       .  S
O269        C454   1.280       .  A
O270       Cu332   2.016   1_545  S
O270        C273   1.280       .  A
Cu272      Cu451   2.372       .  S
C273        O443   1.280       .  A
C275        O445   1.280       .  A
C277        C278   1.206       .  T
C280        C519   1.206       .  T
C281        C342   1.207       .  T
C283        C284   1.206       .  T
C286        C465   1.207       .  T
C287        C288   1.206       .  T
C289        C290   1.206       .  T
C292        C531   1.206       .  T
C294        C353   1.207       .  T
C295        C296   1.206       .  T
C298        C477   1.207       .  T
C299        C300   1.206       .  T
C301        C334   1.511       .  S
C301        C356   1.466       .  S
C301        C357   1.473       .  S
C301        C359   1.465       .  S
C302        C319   1.511       .  S
C302        C351   1.466       .  S
C302        C353   1.473       .  S
C302        C360   1.465       .  S
C303        C335   1.511       .  S
C303        C350   1.465       .  S
C303        C355   1.466       .  S
C303        C358   1.473       .  S
C304        C322   1.511       .  S
C304        C349   1.465       .  S
C304        C352   1.466       .  S
C304        C354   1.473       .  S
C305        C336   1.511       .  S
C305        C344   1.466       .  S
C305        C345   1.473       .  S
C305        C347   1.466       .  S
C306        C321   1.511       .  S
C306        C339   1.466       .  S
C306        C342   1.473       .  S
C306        C348   1.465       .  S
C307        C333   1.511       .  S
C307        C337   1.465       .  S
C307        C343   1.466       .  S
C307        C346   1.473       .  S
C308        C320   1.511       .  S
C308        C338   1.465       .  S
C308        C340   1.466       .  S
C308        C341   1.473       .  S
O309       Cu317   2.002       .  S
O309        C319   1.280       .  A
O310       Cu317   2.016       .  S
O310        C320   1.280       .  A
O311       Cu317   2.002       .  S
O311        C321   1.280       .  A
O312       Cu317   2.016       .  S
O312        C322   1.280       .  A
O313       Cu318   2.002       .  S
O313        C322   1.280       .  A
O314       Cu318   2.016       .  S
O314        C321   1.280       .  A
O315       Cu318   2.002       .  S
O315        C320   1.280       .  A
O316       Cu318   2.016       .  S
O316        C319   1.280       .  A
Cu317      Cu318   2.372       .  S
O324       Cu331   2.016       .  S
O324        C334   1.280       .  A
O326       Cu331   2.016   1_545  S
O326        C336   1.280       .  A
O327       Cu332   2.002   1_545  S
O327        C516   1.280       .  A
O328        C335   1.280       .  A
O329       Cu332   2.002       .  S
O329        C514   1.280       .  A
O330        C333   1.280       .  A
Cu332      Cu511   2.372       .  S
C333        O503   1.280       .  A
C335        O505   1.280       .  A
C337        C338   1.206       .  T
C340        C399   1.206   1_556  T
C343        C344   1.206       .  T
C346        C525   1.207       .  T
C347        C348   1.206       .  T
C349        C350   1.206       .  T
C352        C411   1.206   1_556  T
C355        C356   1.206       .  T
C358        C537   1.207       .  T
C359        C360   1.206       .  T
C361        C394   1.511       .  S
C361        C416   1.466       .  S
C361        C417   1.473       .  S
C361        C419   1.465       .  S
C362        C379   1.511       .  S
C362        C411   1.466       .  S
C362        C413   1.473       .  S
C362        C420   1.465       .  S
C363        C395   1.511       .  S
C363        C410   1.465       .  S
C363        C415   1.466       .  S
C363        C418   1.473       .  S
C364        C382   1.511       .  S
C364        C409   1.465       .  S
C364        C412   1.466       .  S
C364        C414   1.473       .  S
C365        C396   1.511       .  S
C365        C404   1.466       .  S
C365        C405   1.473       .  S
C365        C407   1.465       .  S
C366        C381   1.511       .  S
C366        C399   1.466       .  S
C366        C402   1.473       .  S
C366        C408   1.465       .  S
C367        C393   1.511       .  S
C367        C397   1.465       .  S
C367        C403   1.466       .  S
C367        C406   1.473       .  S
C368        C380   1.511       .  S
C368        C398   1.465       .  S
C368        C400   1.466       .  S
C368        C401   1.473       .  S
O369       Cu377   2.002       .  S
O369        C379   1.280       .  A
O370       Cu377   2.016       .  S
O370        C380   1.280       .  A
O371       Cu377   2.002       .  S
O371        C381   1.280       .  A
O372       Cu377   2.016       .  S
O372        C382   1.280       .  A
O373       Cu378   2.002       .  S
O373        C382   1.280       .  A
O374       Cu378   2.016       .  S
O374        C381   1.280       .  A
O375       Cu378   2.002       .  S
O375        C380   1.280       .  A
O376       Cu378   2.016       .  S
O376        C379   1.280       .  A
Cu377      Cu378   2.372       .  S
O383       Cu451   2.002   1_545  S
O384       Cu391   2.016   1_554  S
O384        C394   1.280       .  A
O385       Cu451   2.002       .  S
O386       Cu391   2.016   1_544  S
O386        C396   1.280       .  A
O387       Cu392   2.002   1_545  S
O388       Cu452   2.016       .  S
O388        C395   1.280       .  A
O389       Cu392   2.002       .  S
O390       Cu452   2.016   1_545  S
O390        C393   1.280       .  A
Cu391       O503   2.002   1_565  S
Cu391       O505   2.002       .  S
Cu392       O508   2.016   1_554  S
Cu392       O510   2.016   1_564  S
C397        C398   1.206       .  T
C401        C462   1.207       .  T
C402        C521   1.207   1_554  T
C403        C404   1.206       .  T
C407        C408   1.206       .  T
C409        C410   1.206       .  T
C413        C534   1.207   1_554  T
C414        C473   1.207       .  T
C415        C416   1.206       .  T
C419        C420   1.206       .  T
C421        C454   1.511       .  S
C421        C476   1.466       .  S
C421        C477   1.473       .  S
C421        C479   1.465       .  S
C422        C439   1.511       .  S
C422        C471   1.466       .  S
C422        C473   1.473       .  S
C422        C480   1.465       .  S
C423        C455   1.511       .  S
C423        C470   1.465       .  S
C423        C475   1.466       .  S
C423        C478   1.473       .  S
C424        C442   1.511       .  S
C424        C469   1.465       .  S
C424        C472   1.466       .  S
C424        C474   1.473       .  S
C425        C456   1.511       .  S
C425        C464   1.466       .  S
C425        C465   1.473       .  S
C425        C467   1.465       .  S
C426        C441   1.511       .  S
C426        C459   1.466       .  S
C426        C462   1.473       .  S
C426        C468   1.465       .  S
C427        C453   1.511       .  S
C427        C457   1.465       .  S
C427        C463   1.466       .  S
C427        C466   1.473       .  S
C428        C440   1.511       .  S
C428        C458   1.465       .  S
C428        C460   1.466       .  S
C428        C461   1.473       .  S
O429       Cu437   2.002       .  S
O429        C439   1.280       .  A
O430       Cu437   2.016       .  S
O430        C440   1.280       .  A
O431       Cu437   2.002       .  S
O431        C441   1.280       .  A
O432       Cu437   2.016       .  S
O432        C442   1.280       .  A
O433       Cu438   2.002       .  S
O433        C442   1.280       .  A
O434       Cu438   2.016       .  S
O434        C441   1.280       .  A
O435       Cu438   2.002       .  S
O435        C440   1.280       .  A
O436       Cu438   2.016       .  S
O436        C439   1.280       .  A
Cu437      Cu438   2.372       .  S
O443       Cu511   2.002   1_545  S
O444       Cu451   2.016       .  S
O444        C454   1.280       .  A
O445       Cu511   2.002       .  S
O446       Cu451   2.016   1_545  S
O446        C456   1.280       .  A
O447       Cu452   2.002   1_545  S
O448       Cu512   2.016       .  S
O448        C455   1.280       .  A
O449       Cu452   2.002       .  S
O450       Cu512   2.016   1_545  S
O450        C453   1.280       .  A
C457        C458   1.206       .  T
C461        C522   1.207       .  T
C463        C464   1.206       .  T
C467        C468   1.206       .  T
C469        C470   1.206       .  T
C474        C533   1.207       .  T
C475        C476   1.206       .  T
C479        C480   1.206       .  T
C481        C514   1.511       .  S
C481        C536   1.466       .  S
C481        C537   1.473       .  S
C481        C539   1.465       .  S
C482        C499   1.511       .  S
C482        C531   1.466       .  S
C482        C533   1.473       .  S
C482        C540   1.465       .  S
C483        C515   1.511       .  S
C483        C530   1.465       .  S
C483        C535   1.466       .  S
C483        C538   1.473       .  S
C484        C502   1.511       .  S
C484        C529   1.465       .  S
C484        C532   1.466       .  S
C484        C534   1.473       .  S
C485        C516   1.511       .  S
C485        C524   1.466       .  S
C485        C525   1.473       .  S
C485        C527   1.466       .  S
C486        C501   1.511       .  S
C486        C519   1.466       .  S
C486        C522   1.473       .  S
C486        C528   1.465       .  S
C487        C513   1.511       .  S
C487        C517   1.465       .  S
C487        C523   1.466       .  S
C487        C526   1.473       .  S
C488        C500   1.511       .  S
C488        C518   1.465       .  S
C488        C520   1.466       .  S
C488        C521   1.473       .  S
O489       Cu497   2.002       .  S
O489        C499   1.280       .  A
O490       Cu497   2.016       .  S
O490        C500   1.280       .  A
O491       Cu497   2.002       .  S
O491        C501   1.280       .  A
O492       Cu497   2.016       .  S
O492        C502   1.280       .  A
O493       Cu498   2.002       .  S
O493        C502   1.280       .  A
O494       Cu498   2.016       .  S
O494        C501   1.280       .  A
O495       Cu498   2.002       .  S
O495        C500   1.280       .  A
O496       Cu498   2.016       .  S
O496        C499   1.280       .  A
Cu497      Cu498   2.372       .  S
O504       Cu511   2.016       .  S
O504        C514   1.280       .  A
O506       Cu511   2.016   1_545  S
O506        C516   1.280       .  A
O507       Cu512   2.002   1_545  S
O508        C515   1.280       .  A
O509       Cu512   2.002       .  S
O510        C513   1.280       .  A
C517        C518   1.206       .  T
C523        C524   1.206       .  T
C527        C528   1.206       .  T
C529        C530   1.206       .  T
C535        C536   1.206       .  T
C539        C540   1.206       .  T
