geometry optimzed in LAMMPS
_audit_creation_date              2020-12-01 
_audit_creation_method            'lammps2cif' 
_symmetry_space_group_name_H-M    'P1' 
_symmetry_Int_Tables_number       1 
_symmetry_cell_setting            triclinic 
loop_ 
_symmetry_equiv_pos_as_xyz 
  x,y,z 
_cell_length_a                    80.26004895 
_cell_length_b                    38.328944929231646 
_cell_length_c                    36.89716912997838 
_cell_angle_alpha                 90.02000485271671 
_cell_angle_beta                  90.05704297073302 
_cell_angle_gamma                 90.02162192715305 
loop_ 
_atom_site_label 
_atom_site_type_symbol 
_atom_site_fract_x 
_atom_site_fract_y 
_atom_site_fract_z 
_atom_site_charge 
C1          C  0.86401113  0.62616992  0.68159710     0.05000
C2          C  0.86484030  0.60489159  0.65077302    -0.11100
C3          C  0.85107696  0.58457751  0.64073544     0.02500
C4          C  0.83648780  0.58557426  0.66151210    -0.09600
C5          C  0.83565636  0.60685673  0.69231965     0.05000
C6          C  0.84941966  0.62714785  0.70236028    -0.09100
H7          H  0.87615886  0.60404446  0.63476160     0.10600
H8          H  0.82583879  0.56979744  0.65378172     0.08100
H9          H  0.84879819  0.64353707  0.72629151     0.08000
C10         C  0.86549625  0.37132742  0.36257394     0.05000
C11         C  0.86622067  0.39273658  0.39332693    -0.11100
C12         C  0.85224288  0.41220355  0.40367938     0.02500
C13         C  0.83753401  0.41020816  0.38331539    -0.09600
C14         C  0.83679757  0.38886220  0.35253896     0.05000
C15         C  0.85078302  0.36941377  0.34217891    -0.09100
H16         H  0.87762427  0.39434759  0.40903605     0.10600
H17         H  0.82672520  0.42534588  0.39128926     0.08100
H18         H  0.85023924  0.35296379  0.31828235     0.08000
N19         N  0.99433162  0.79459160  0.80356810    -0.25400
N20         N  0.00257906  0.77514473  0.78001897    -0.33200
C21         C  0.99165130  0.75635427  0.76044341     0.03000
C22         C  0.97584339  0.76449130  0.77229067     0.09000
C23         C  0.97790229  0.78870238  0.79960186    -0.04100
H24         H  0.99500691  0.73776046  0.73962247     0.09600
H25         H  0.96824191  0.80077058  0.81573886     0.10800
Cu26       Cu  0.02828132  0.77367446  0.77669830     0.44200
Cu27       Cu  0.00584583  0.82749680  0.84055049     0.42000
Cu28       Cu  0.05096782  0.82677095  0.84132904     0.43900
N29         N  0.05396282  0.77392960  0.78109755    -0.32800
N30         N  0.06230546  0.79303896  0.80484624    -0.27000
C31         C  0.07867912  0.78618635  0.80148041    -0.03100
C32         C  0.08059067  0.76172049  0.77435216     0.09100
C33         C  0.06476112  0.75443370  0.76200962     0.02900
H34         H  0.08839338  0.79776289  0.81790695     0.10500
H35         H  0.06129120  0.73591602  0.74118279     0.09600
N36         N  0.03664952  0.85862701  0.87454011    -0.34200
N37         N  0.02016339  0.85885977  0.87423835    -0.26400
C38         C  0.01468598  0.88245772  0.89847640    -0.01600
C39         C  0.02838479  0.89767938  0.91467016     0.07000
C40         C  0.04210228  0.88207940  0.89899862     0.05100
H41         H  0.00171082  0.88813830  0.90377417     0.10200
H42         H  0.05507257  0.88740904  0.90480387     0.09000
N43         N  0.06341997  0.20050358  0.23934518    -0.25400
N44         N  0.05508795  0.22000271  0.26270870    -0.33200
C45         C  0.06592261  0.23906052  0.28224001     0.03000
C46         C  0.08177407  0.23110227  0.27056935     0.09000
C47         C  0.07983126  0.20667038  0.24339416    -0.04100
H48         H  0.06246968  0.25774871  0.30289390     0.09600
H49         H  0.08955718  0.19466130  0.22739660     0.10800
Cu50       Cu  0.02939125  0.22139121  0.26585306     0.44200
Cu51       Cu  0.05194668  0.16728084  0.20246303     0.42000
Cu52       Cu  0.00655649  0.16767928  0.20254580     0.43900
N53         N  0.00370005  0.22117260  0.26209593    -0.32800
N54         N  0.99525035  0.20172101  0.23884242    -0.27000
C55         C  0.97887876  0.20841779  0.24270005    -0.03100
C56         C  0.97709051  0.23315578  0.26963082     0.09100
C57         C  0.99299013  0.24073849  0.28134361     0.02900
H58         H  0.96907263  0.19643463  0.22685829     0.10500
H59         H  0.99655760  0.25935811  0.30199323     0.09600
N60         N  0.02091520  0.13625641  0.16888368    -0.34200
N61         N  0.03741017  0.13613588  0.16884241    -0.26400
C62         C  0.04280485  0.11299548  0.14403282    -0.01600
C63         C  0.02905737  0.09797633  0.12781865     0.07000
C64         C  0.01539281  0.11320181  0.14408568     0.05100
H65         H  0.05576274  0.10756833  0.13826974     0.10200
H66         H  0.00240527  0.10797415  0.13836189     0.09000
C67         C  0.19241513  0.62258542  0.68464130     0.05000
C68         C  0.19168312  0.60181143  0.65344067    -0.11100
C69         C  0.20568028  0.58269680  0.64256970     0.02500
C70         C  0.22042067  0.58442358  0.66284693    -0.09600
C71         C  0.22115690  0.60517940  0.69405411     0.05000
C72         C  0.20715198  0.62426894  0.70494254    -0.09100
H73         H  0.18024864  0.60036920  0.63781828     0.10600
H74         H  0.23124374  0.56952471  0.65448871     0.08100
H75         H  0.20769671  0.64024395  0.72918450     0.08000
C76         C  0.19317927  0.37012557  0.36337040     0.05000
C77         C  0.19223291  0.39102101  0.39446734    -0.11100
C78         C  0.20600970  0.41096743  0.40520149     0.02500
C79         C  0.22072222  0.41001347  0.38485147    -0.09600
C80         C  0.22166938  0.38914700  0.35376786     0.05000
C81         C  0.20789801  0.36920686  0.34302464    -0.09100
H82         H  0.18082174  0.39183291  0.41016574     0.10600
H83         H  0.23137745  0.42552045  0.39311895     0.08100
H84         H  0.20861619  0.35312022  0.31888648     0.08000
C85         C  0.69267049  0.62337683  0.86435632     0.05000
C86         C  0.69176058  0.60149051  0.89469975    -0.11100
C87         C  0.70550091  0.58099954  0.90445491     0.02500
C88         C  0.72013453  0.58239637  0.88385341    -0.09600
C89         C  0.72104535  0.60427422  0.85353087     0.05000
C90         C  0.70731359  0.62476423  0.84378844    -0.09100
H91         H  0.68041468  0.60037334  0.91060044     0.10600
H92         H  0.73077244  0.56652211  0.89139170     0.08100
H93         H  0.70800436  0.64164797  0.82025162     0.08000
C94         C  0.69275517  0.36828760  0.18310164     0.05000
C95         C  0.69191007  0.38989103  0.15252944    -0.11100
C96         C  0.70582436  0.40955458  0.14215446     0.01700
C97         C  0.72057619  0.40762365  0.16236049    -0.09600
C98         C  0.72144249  0.38604699  0.19292697     0.05000
C99         C  0.70752978  0.36634939  0.20328183    -0.09100
H100        H  0.68046561  0.39147980  0.13696130     0.10600
H101        H  0.73133016  0.42294527  0.15438872     0.08100
H102        H  0.70816687  0.34974644  0.22703957     0.08000
N103        N  0.49533242  0.79572359  0.74312818    -0.25400
N104        N  0.50359052  0.77638161  0.76677816    -0.33200
C105        C  0.49268580  0.75751175  0.78625728     0.03000
C106        C  0.47687171  0.76546236  0.77427458     0.09000
C107        C  0.47890675  0.78967425  0.74695588    -0.04100
H108        H  0.49606672  0.73892239  0.80706528     0.09600
H109        H  0.46923910  0.80153776  0.73064214     0.10800
Cu110      Cu  0.52927981  0.77502759  0.77045971     0.44200
Cu111      Cu  0.50686908  0.82838496  0.70595143     0.42000
Cu112      Cu  0.55195467  0.82866260  0.70671169     0.43900
N113        N  0.55497712  0.77615606  0.76711960    -0.32800
N114        N  0.56331697  0.79563546  0.74375486    -0.27000
C115        C  0.57972076  0.78947347  0.74774580    -0.03100
C116        C  0.58165843  0.76505149  0.77487812     0.09100
C117        C  0.56581295  0.75707644  0.78658895     0.02900
H118        H  0.58943974  0.80144062  0.73169081     0.10500
H119        H  0.56236652  0.73837797  0.80722960     0.09600
N120        N  0.53774132  0.85922951  0.67210191    -0.34200
N121        N  0.52125641  0.85906891  0.67178978    -0.26400
C122        C  0.51583491  0.88168796  0.64651282    -0.01600
C123        C  0.52956931  0.89666415  0.63030023     0.07000
C124        C  0.54325449  0.88196405  0.64703187     0.05100
H125        H  0.50287181  0.88686417  0.64050746     0.10200
H126        H  0.55623683  0.88738222  0.64150746     0.09000
N127        N  0.56267090  0.20042773  0.30724504    -0.25400
N128        N  0.55432058  0.22056195  0.28448140    -0.33200
C129        C  0.56515450  0.23952799  0.26493024     0.03000
C130        C  0.58102002  0.23083696  0.27596202     0.09000
C131        C  0.57909419  0.20607689  0.30278194    -0.04100
H132        H  0.56169755  0.25864980  0.24470938     0.09600
H133        H  0.58884090  0.19351296  0.31828586     0.10800
Cu134      Cu  0.52863367  0.22272971  0.28197299     0.44200
Cu135      Cu  0.55124833  0.16701563  0.34387089     0.42000
Cu136      Cu  0.50595591  0.16856377  0.34516617     0.43900
N137        N  0.50295923  0.22202062  0.28566314    -0.32800
N138        N  0.49458655  0.20246305  0.30890108    -0.27000
C139        C  0.47818990  0.20878995  0.30491709    -0.03100
C140        C  0.47630545  0.23338581  0.27791030     0.09100
C141        C  0.49216852  0.24128210  0.26628209     0.02900
H142        H  0.46843514  0.19667636  0.32074888     0.10500
H143        H  0.49565662  0.25995040  0.24564522     0.09600
N144        N  0.52031804  0.13606984  0.37760626    -0.34200
N145        N  0.53680535  0.13548352  0.37711447    -0.26400
C146        C  0.54223058  0.11147406  0.40097354    -0.01600
C147        C  0.52850136  0.09637504  0.41709181     0.07000
C148        C  0.51482091  0.11245190  0.40179251     0.05100
H149        H  0.55519153  0.10548972  0.40612654     0.10200
H150        H  0.50184313  0.10738704  0.40771182     0.09000
C151        C  0.36532262  0.37322817  0.18439599     0.05000
C152        C  0.35051470  0.37127535  0.20437039    -0.11100
C153        C  0.33658029  0.39068565  0.19361087     0.02500
C154        C  0.33744067  0.41196900  0.16284380    -0.09600
C155        C  0.35222535  0.41389818  0.14283284     0.05000
C156        C  0.36617508  0.39453925  0.15360848    -0.09100
H157        H  0.34986671  0.35487704  0.22827892     0.10600
H158        H  0.32665916  0.42706124  0.15456541     0.08100
H159        H  0.37764410  0.39611779  0.13817438     0.08000
C160        C  0.36521318  0.62533932  0.86349087     0.05000
C161        C  0.35058025  0.62685679  0.84278738    -0.11100
C162        C  0.33665604  0.60707757  0.85289905     0.02500
C163        C  0.33737223  0.58578620  0.88368841    -0.09600
C164        C  0.35198480  0.58423627  0.90438449     0.05000
C165        C  0.36590635  0.60402313  0.89430139    -0.09100
H166        H  0.35004505  0.64328183  0.81888519     0.10600
H167        H  0.32660365  0.57042102  0.89147813     0.08100
H168        H  0.37723738  0.60276222  0.91028855     0.08000
C169        C  0.35326840  0.47695449  0.05383901     0.18900
C170        C  0.33884300  0.49559081  0.04478072    -0.10200
C171        C  0.33875488  0.51749194  0.01449464    -0.11000
C172        C  0.35309491  0.52084759  0.99316370     0.20500
C173        C  0.36751414  0.50216059  0.00217467    -0.13100
C174        C  0.36760205  0.48024783  0.03247360    -0.11400
C175        C  0.35297751  0.54338334  0.96202381     0.01500
C176        C  0.35267172  0.56214729  0.93584159    -0.31400
C177        C  0.35332460  0.45451903  0.08505082     0.02800
C178        C  0.35303634  0.43588711  0.11132887    -0.33000
H179        H  0.32769059  0.49320158  0.06111963     0.13900
H180        H  0.32753445  0.53179377  0.00772621     0.13700
H181        H  0.37866058  0.50454479  0.98581909     0.13600
H182        H  0.37881582  0.46592533  0.03924220     0.12600
C183        C  0.43414376  0.28146753  0.24185086     0.18900
C184        C  0.43529189  0.30324397  0.21145794    -0.10200
C185        C  0.42129008  0.32160115  0.19940769    -0.11000
C186        C  0.40608906  0.31825010  0.21771017     0.20500
C187        C  0.40492569  0.29637859  0.24802042    -0.13100
C188        C  0.41892841  0.27802064  0.26007268    -0.11400
C189        C  0.39173140  0.33743408  0.20559471     0.01500
C190        C  0.37969367  0.35365918  0.19574898    -0.31400
C191        C  0.44865612  0.26325795  0.25470767     0.02800
C192        C  0.46108732  0.24897765  0.26544920    -0.33000
H193        H  0.44701213  0.30615883  0.19722624     0.13900
H194        H  0.42232620  0.33847203  0.17596285     0.13700
H195        H  0.39323071  0.29363625  0.26238405     0.13600
H196        H  0.41791841  0.26131998  0.28365298     0.12600
C197        C  0.43437996  0.71768650  0.80897033     0.18900
C198        C  0.43477683  0.69887190  0.84151697    -0.10200
C199        C  0.42064932  0.68066344  0.85311447    -0.11000
C200        C  0.40607010  0.68119043  0.83220125     0.20500
C201        C  0.40564942  0.70014702  0.79975057    -0.13100
C202        C  0.41977662  0.71835230  0.78815135    -0.11400
C203        C  0.39163482  0.66189003  0.84371534     0.01500
C204        C  0.37957023  0.64538577  0.85291384    -0.31400
C205        C  0.44904675  0.73570260  0.79663944     0.02800
C206        C  0.46157860  0.74989630  0.78633577    -0.33000
H207        H  0.44601937  0.69811458  0.85777910     0.13900
H208        H  0.42111902  0.66604583  0.87822107     0.13700
H209        H  0.39444741  0.70068253  0.78334778     0.13600
H210        H  0.41934726  0.73274506  0.76290223     0.12600
C211        C  0.52874868  0.02084401  0.49522775     0.18900
C212        C  0.54392158  0.01011492  0.51038580    -0.10200
C213        C  0.54415665  0.98474881  0.53765170    -0.11000
C214        C  0.52921798  0.96996973  0.54991614     0.20500
C215        C  0.51404406  0.98061471  0.53468201    -0.13100
C216        C  0.51380891  0.00598807  0.50740933    -0.11400
C217        C  0.52945305  0.94405024  0.57820256     0.01500
C218        C  0.52958030  0.92241594  0.60195519    -0.31400
C219        C  0.52852567  0.04724478  0.46742265     0.02800
C220        C  0.52846702  0.06956445  0.44436115    -0.33000
H221        H  0.55555004  0.02141553  0.50120225     0.13900
H222        H  0.55596275  0.97673409  0.54921363     0.13700
H223        H  0.50241391  0.96937764  0.54393827     0.13600
H224        H  0.50200100  0.01407438  0.49591162     0.12600
C225        C  0.65180634  0.31357902  0.21582211     0.18900
C226        C  0.65240337  0.29431509  0.24806310    -0.10200
C227        C  0.63825023  0.27652068  0.26016836    -0.11000
C228        C  0.62345020  0.27791705  0.24006695     0.20500
C229        C  0.62286420  0.29710070  0.20777003    -0.13100
C230        C  0.63701754  0.31489523  0.19566521    -0.11400
C231        C  0.60879572  0.26017868  0.25283122     0.01500
C232        C  0.59628612  0.24616523  0.26348422    -0.31400
C233        C  0.66628633  0.33237399  0.20373933     0.02800
C234        C  0.67838178  0.34852365  0.19409524    -0.33000
H235        H  0.66376840  0.29319315  0.26388931     0.13900
H236        H  0.63882115  0.26183657  0.28522536     0.13700
H237        H  0.61146547  0.29842233  0.19207342     0.13600
H238        H  0.63641318  0.32977776  0.17073869     0.12600
C239        C  0.70432896  0.51717607  0.99291269     0.18900
C240        C  0.71943473  0.50451542  0.00667138    -0.10200
C241        C  0.71950816  0.48259146  0.03694306    -0.11000
C242        C  0.70447501  0.47322896  0.05357790     0.20500
C243        C  0.68936292  0.48590226  0.03984435    -0.13100
C244        C  0.68928952  0.50784279  0.00955455    -0.11400
C245        C  0.70459904  0.45068107  0.08472481     0.01500
C246        C  0.70499234  0.43185744  0.11086424    -0.31400
C247        C  0.70431076  0.53971403  0.96175767     0.02800
C248        C  0.70465116  0.55856705  0.93563905    -0.33000
H249        H  0.73113328  0.51158520  0.99400792     0.13900
H250        H  0.73126205  0.47295183  0.04736326     0.13700
H251        H  0.67766992  0.47883145  0.05252636     0.13600
H252        H  0.67754121  0.51750383  0.99913106     0.12600
C253        C  0.65234487  0.68077312  0.83313490     0.18900
C254        C  0.63885738  0.68561042  0.85667179    -0.10200
C255        C  0.62477551  0.70391606  0.84499950    -0.11000
C256        C  0.62413799  0.71745487  0.80975933     0.20500
C257        C  0.63767086  0.71281837  0.78630254    -0.13100
C258        C  0.65175287  0.69451329  0.79797552    -0.11400
C259        C  0.60945450  0.73536626  0.79743355     0.01500
C260        C  0.59691402  0.74947445  0.78708679    -0.31400
C261        C  0.66663489  0.66112427  0.84477076     0.02800
C262        C  0.67852228  0.64411957  0.85401541    -0.33000
H263        H  0.63918066  0.67502627  0.88388757     0.13900
H264        H  0.61435420  0.70728344  0.86331329     0.13700
H265        H  0.63728110  0.72310696  0.75896858     0.13600
H266        H  0.66210741  0.69085085  0.77954485     0.12600
C267        C  0.26441027  0.38798563  0.29402578     0.18900
C268        C  0.27994457  0.38784632  0.31136641    -0.10200
C269        C  0.29457949  0.38796257  0.29084851    -0.11000
C270        C  0.29372942  0.38820949  0.25292558     0.20500
C271        C  0.27819449  0.38835390  0.23557874    -0.13100
C272        C  0.26355733  0.38823316  0.25609984    -0.11400
C273        C  0.30878972  0.38853568  0.23187306     0.01500
C274        C  0.32145440  0.38920178  0.21439147    -0.31400
C275        C  0.24936255  0.38807777  0.31512134     0.02800
C276        C  0.23674158  0.38841202  0.33276110    -0.33000
H277        H  0.28073518  0.38769766  0.34068313     0.13900
H278        H  0.30653420  0.38790377  0.30451427     0.13700
H279        H  0.27740563  0.38860143  0.20626293     0.13600
H280        H  0.25160172  0.38838373  0.24243883     0.12600
C281        C  0.29373277  0.60903073  0.79351536     0.18900
C282        C  0.27836429  0.61275151  0.81108424    -0.10200
C283        C  0.26357405  0.61236400  0.79100465    -0.11000
C284        C  0.26410398  0.60824511  0.75328988     0.20500
C285        C  0.27947242  0.60461846  0.73572472    -0.13100
C286        C  0.29425757  0.60500885  0.75579670    -0.11400
C287        C  0.24890641  0.60748983  0.73262107     0.01500
C288        C  0.23623699  0.60658779  0.71509270    -0.31400
C289        C  0.30893549  0.60894879  0.81419360     0.02800
C290        C  0.32163075  0.60840256  0.83165681    -0.33000
H291        H  0.27781983  0.61583076  0.84024975     0.13900
H292        H  0.25175213  0.61516492  0.80485328     0.13700
H293        H  0.28001615  0.60139309  0.70657534     0.13600
H294        H  0.30607310  0.60206688  0.74195375     0.12600
C295        C  0.20451899  0.47410395  0.49414245     0.18900
C296        C  0.21955518  0.48738154  0.50764775    -0.10200
C297        C  0.21951139  0.50983851  0.53749399    -0.11000
C298        C  0.20443131  0.51912007  0.55394764     0.20500
C299        C  0.18938385  0.50582108  0.54048366    -0.13100
C300        C  0.18942767  0.48334282  0.51060892    -0.11400
C301        C  0.20447192  0.54202480  0.58480300     0.01500
C302        C  0.20487302  0.56084241  0.61094498    -0.31400
C303        C  0.20461980  0.45132301  0.46318667     0.02800
C304        C  0.20506310  0.43267322  0.43691834    -0.33000
H305        H  0.23128911  0.48042059  0.49508113     0.13900
H306        H  0.23121379  0.51994164  0.54773916     0.13700
H307        H  0.17765666  0.51280548  0.55306048     0.13600
H308        H  0.17773177  0.47323491  0.50033920     0.12600
C309        C  0.12431165  0.27821848  0.30625018     0.18900
C310        C  0.12450767  0.29350881  0.34074913    -0.10200
C311        C  0.13865969  0.31141222  0.35275880    -0.11000
C312        C  0.15266816  0.31410894  0.33031359     0.20500
C313        C  0.15251763  0.29862653  0.29590911    -0.13100
C314        C  0.13836319  0.28071916  0.28389632    -0.11400
C315        C  0.16705466  0.33330274  0.34230883     0.01500
C316        C  0.17899491  0.34990150  0.35209075    -0.31400
C317        C  0.10958668  0.26059706  0.29355880     0.02800
C318        C  0.09703773  0.24662025  0.28296633    -0.33000
H319        H  0.11369755  0.29179097  0.35822504     0.13900
H320        H  0.13864013  0.32333734  0.37938670     0.13700
H321        H  0.16327796  0.30060788  0.27831938     0.13600
H322        H  0.13833105  0.26905181  0.25714683     0.12600
C323        C  0.12288322  0.71247317  0.74087260     0.18900
C324        C  0.13368827  0.72768767  0.71560189    -0.10200
C325        C  0.14785822  0.70961503  0.70405214    -0.11000
C326        C  0.15126143  0.67627101  0.71772015     0.20500
C327        C  0.14044998  0.66105003  0.74295989    -0.13100
C328        C  0.12628620  0.67911338  0.75450516    -0.11400
C329        C  0.16581719  0.65765396  0.70586439     0.01500
C330        C  0.17797227  0.64181369  0.69609408    -0.31400
C331        C  0.10825068  0.73089504  0.75267188     0.02800
C332        C  0.09578220  0.74552982  0.76262741    -0.33000
H333        H  0.13115521  0.75344336  0.70484319     0.13900
H334        H  0.15613858  0.72159715  0.68450157     0.13700
H335        H  0.14296474  0.63526650  0.75367231     0.13600
H336        H  0.11799477  0.66708803  0.77400730     0.12600
C337        C  0.02877736  0.02399556  0.04788930     0.18900
C338        C  0.04380941  0.01134311  0.03373274    -0.10200
C339        C  0.04367587  0.98592686  0.00647007    -0.11000
C340        C  0.02851151  0.97300480  0.99319025     0.20500
C341        C  0.01347803  0.98569766  0.00729872    -0.13100
C342        C  0.01361157  0.01111569  0.03456314    -0.11400
C343        C  0.02839220  0.94661575  0.96530603     0.01500
C344        C  0.02836733  0.92435839  0.94213771    -0.31400
C345        C  0.02890940  0.05009080  0.07608194     0.02800
C346        C  0.02898633  0.07192089  0.09969374    -0.33000
H347        H  0.05561495  0.02107850  0.04379331     0.13900
H348        H  0.05538038  0.97631897  0.99580559     0.13700
H349        H  0.00167362  0.97591383  0.99728180     0.13600
H350        H  0.00190742  0.02067777  0.04527344     0.12600
C351        C  0.79393444  0.38546156  0.29289736     0.18900
C352        C  0.77847176  0.38753228  0.31035860    -0.10200
C353        C  0.76374573  0.38695365  0.29006508    -0.11000
C354        C  0.76441706  0.38429872  0.25222199     0.20500
C355        C  0.77987991  0.38221256  0.23475104    -0.13100
C356        C  0.79460961  0.38278701  0.25505000    -0.11400
C357        C  0.74926066  0.38411739  0.23134643     0.01500
C358        C  0.73655716  0.38457761  0.21388804    -0.31400
C359        C  0.80908090  0.38627855  0.31379413     0.02800
C360        C  0.82173305  0.38724342  0.33141023    -0.33000
H361        H  0.77780649  0.38965415  0.33960362     0.13900
H362        H  0.75185872  0.38865615  0.30384305     0.13700
H363        H  0.78054391  0.38022813  0.20549566     0.13600
H364        H  0.80649961  0.38121567  0.24126890     0.12600
C365        C  0.90643237  0.31638120  0.33015391     0.18900
C366        C  0.92074158  0.31500116  0.35189488    -0.10200
C367        C  0.93488126  0.29712707  0.33980687    -0.11000
C368        C  0.93476300  0.28055850  0.30593611     0.20500
C369        C  0.92041823  0.28176806  0.28431240    -0.13100
C370        C  0.90628473  0.29963530  0.29639596    -0.11400
C371        C  0.94944135  0.26291183  0.29307822     0.01500
C372        C  0.96191008  0.24884896  0.28221869    -0.31400
C373        C  0.89199733  0.33538958  0.34216165     0.02800
C374        C  0.87990921  0.35163261  0.35168484    -0.33000
H375        H  0.92099714  0.32789556  0.37802613     0.13900
H376        H  0.94591770  0.29641184  0.35672328     0.13700
H377        H  0.92019966  0.26910684  0.25805740     0.13600
H378        H  0.89529343  0.30057653  0.27935286     0.12600
C379        C  0.79308832  0.60821396  0.75266069     0.18900
C380        C  0.77757034  0.60979149  0.73532364    -0.10200
C381        C  0.76291813  0.60936789  0.75578612    -0.11000
C382        C  0.76373547  0.60736488  0.79365684     0.20500
C383        C  0.77925496  0.60591557  0.81100381    -0.13100
C384        C  0.79390834  0.60634231  0.79053993    -0.11400
C385        C  0.74866817  0.60653517  0.81468245     0.01500
C386        C  0.73606276  0.60560485  0.83235946    -0.31400
C387        C  0.80813983  0.60813039  0.73156627     0.02800
C388        C  0.82070453  0.60770332  0.71373361    -0.33000
H389        H  0.77680449  0.61121740  0.70604175     0.13900
H390        H  0.75097749  0.61048698  0.74211381     0.13700
H391        H  0.78001842  0.60434820  0.84027809     0.13600
H392        H  0.80584812  0.60508764  0.80420283     0.12600
C393        C  0.85311084  0.47648297  0.49184720     0.18900
C394        C  0.86797075  0.49137249  0.50447613    -0.10200
C395        C  0.86775550  0.51364205  0.53452116    -0.11000
C396        C  0.85267928  0.52109168  0.55200770     0.20500
C397        C  0.83782590  0.50625425  0.53931937    -0.13100
C398        C  0.83804084  0.48400514  0.50929880    -0.11400
C399        C  0.85241610  0.54376599  0.58306075     0.01500
C400        C  0.85192860  0.56251204  0.60926074    -0.31400
C401        C  0.85325916  0.45357908  0.46096704     0.02800
C402        C  0.85299125  0.43454032  0.43497397    -0.33000
H403        H  0.87968873  0.48575334  0.49114296     0.13900
H404        H  0.87931129  0.52498481  0.54412756     0.13700
H405        H  0.82610333  0.51184473  0.55265070     0.13600
H406        H  0.82647960  0.47266068  0.49972036     0.12600
C407        C  0.93298776  0.71835080  0.73726435     0.18900
C408        C  0.92025400  0.71033848  0.76183540    -0.10200
C409        C  0.90605383  0.69248739  0.75003052    -0.11000
C410        C  0.90454295  0.68257903  0.71362265     0.20500
C411        C  0.91721695  0.69082717  0.68899370    -0.13100
C412        C  0.93141732  0.70868018  0.70079796    -0.11400
C413        C  0.89016236  0.66333126  0.70174517     0.01500
C414        C  0.87821079  0.64662363  0.69226753    -0.31400
C415        C  0.94783240  0.73569830  0.74961386     0.02800
C416        C  0.96049523  0.74934603  0.75997430    -0.33000
H417        H  0.92136704  0.71762457  0.79010921     0.13900
H418        H  0.89633263  0.68617215  0.76930040     0.13700
H419        H  0.91617939  0.68322278  0.66079719     0.13600
H420        H  0.94121507  0.71467928  0.68160240     0.12600
loop_ 
_geom_bond_atom_site_label_1 
_geom_bond_atom_site_label_2 
_geom_bond_distance 
_geom_bond_site_symmetry_2 
_ccdc_geom_bond_type 
C1            C2   1.401       .  A
C1            C6   1.401       .  A
C1          C414   1.438       .  S
C2            C3   1.401       .  A
C2            H7   1.085       .  S
C3            C4   1.401       .  A
C3          C400   1.438       .  S
C4            C5   1.401       .  A
C4            H8   1.085       .  S
C5            C6   1.400       .  A
C5          C388   1.438       .  S
C6            H9   1.085       .  S
C10          C11   1.401       .  A
C10          C15   1.402       .  A
C10         C374   1.439       .  S
C11          C12   1.401       .  A
C11          H16   1.085       .  S
C12          C13   1.401       .  A
C12         C402   1.438       .  S
C13          C14   1.401       .  A
C13          H17   1.085       .  S
C14          C15   1.401       .  A
C14         C360   1.439       .  S
C15          H18   1.085       .  S
N19          N20   1.323   1_655  A
N19          C23   1.346       .  A
N19         Cu27   2.074   1_655  S
N20          C21   1.344   1_455  A
N20         Cu26   2.067       .  S
C21          C22   1.378       .  A
C21          H24   1.082       .  S
C22          C23   1.379       .  A
C22         C416   1.435       .  S
C23          H25   1.082       .  S
Cu26         N29   2.067       .  S
Cu27         N37   2.075       .  S
Cu28         N30   2.077       .  S
Cu28         N36   2.077       .  S
N29          N30   1.323       .  A
N29          C33   1.344       .  A
N30          C31   1.346       .  A
C31          C32   1.380       .  A
C31          H34   1.082       .  S
C32          C33   1.378       .  A
C32         C332   1.435       .  S
C33          H35   1.082       .  S
N36          N37   1.323       .  A
N36          C40   1.346       .  A
N37          C38   1.346       .  A
C38          C39   1.380       .  A
C38          H41   1.082       .  S
C39          C40   1.380       .  A
C39         C344   1.439       .  S
C40          H42   1.082       .  S
N43          N44   1.323       .  A
N43          C47   1.346       .  A
N43         Cu51   2.078       .  S
N44          C45   1.344       .  A
N44         Cu50   2.066       .  S
C45          C46   1.378       .  A
C45          H48   1.082       .  S
C46          C47   1.380       .  A
C46         C318   1.436       .  S
C47          H49   1.082       .  S
Cu50         N53   2.067       .  S
Cu51         N61   2.078       .  S
Cu52         N54   2.079   1_455  S
Cu52         N60   2.079       .  S
N53          N54   1.323   1_455  A
N53          C57   1.344   1_455  A
N54          C55   1.347       .  A
C55          C56   1.381       .  A
C55          H58   1.082       .  S
C56          C57   1.378       .  A
C56         C372   1.436       .  S
C57          H59   1.082       .  S
N60          N61   1.324       .  A
N60          C64   1.346       .  A
N61          C62   1.346       .  A
C62          C63   1.380       .  A
C62          H65   1.082       .  S
C63          C64   1.380       .  A
C63         C346   1.440       .  S
C64          H66   1.082       .  S
C67          C68   1.401       .  A
C67          C72   1.401       .  A
C67         C330   1.438       .  S
C68          C69   1.400       .  A
C68          H73   1.085       .  S
C69          C70   1.401       .  A
C69         C302   1.438       .  S
C70          C71   1.401       .  A
C70          H74   1.085       .  S
C71          C72   1.401       .  A
C71         C288   1.438       .  S
C72          H75   1.085       .  S
C76          C77   1.401       .  A
C76          C81   1.401       .  A
C76         C316   1.438       .  S
C77          C78   1.401       .  A
C77          H82   1.085       .  S
C78          C79   1.400       .  A
C78         C304   1.438       .  S
C79          C80   1.400       .  A
C79          H83   1.085       .  S
C80          C81   1.400       .  A
C80         C276   1.438       .  S
C81          H84   1.085       .  S
C85          C86   1.401       .  A
C85          C90   1.401       .  A
C85         C262   1.438       .  S
C86          C87   1.401       .  A
C86          H91   1.085       .  S
C87          C88   1.401       .  A
C87         C248   1.438       .  S
C88          C89   1.400       .  A
C88          H92   1.085       .  S
C89          C90   1.400       .  A
C89         C386   1.438       .  S
C90          H93   1.085       .  S
C94          C95   1.401       .  A
C94          C99   1.402       .  A
C94         C234   1.439       .  S
C95          C96   1.401       .  A
C95         H100   1.085       .  S
C96          C97   1.401       .  A
C96         C246   1.438       .  S
C97          C98   1.400       .  A
C97         H101   1.085       .  S
C98          C99   1.401       .  A
C98         C358   1.439       .  S
C99         H102   1.085       .  S
N103        N104   1.323       .  A
N103        C107   1.346       .  A
N103       Cu111   2.076       .  S
N104        C105   1.344       .  A
N104       Cu110   2.067       .  S
C105        C106   1.378       .  A
C105        H108   1.082       .  S
C106        C107   1.380       .  A
C106        C206   1.436       .  S
C107        H109   1.082       .  S
Cu110       N113   2.067       .  S
Cu111       N121   2.076       .  S
Cu112       N114   2.074       .  S
Cu112       N120   2.075       .  S
N113        N114   1.323       .  A
N113        C117   1.344       .  A
N114        C115   1.346       .  A
C115        C116   1.380       .  A
C115        H118   1.082       .  S
C116        C117   1.378       .  A
C116        C260   1.435       .  S
C117        H119   1.082       .  S
N120        N121   1.323       .  A
N120        C124   1.346       .  A
N121        C122   1.346       .  A
C122        C123   1.380       .  A
C122        H125   1.082       .  S
C123        C124   1.380       .  A
C123        C218   1.438       .  S
C124        H126   1.082       .  S
N127        N128   1.323       .  A
N127        C131   1.346       .  A
N127       Cu135   2.076       .  S
N128        C129   1.344       .  A
N128       Cu134   2.065       .  S
C129        C130   1.377       .  A
C129        H132   1.082       .  S
C130        C131   1.380       .  A
C130        C232   1.435       .  S
C131        H133   1.082       .  S
Cu134       N137   2.065       .  S
Cu135       N145   2.076       .  S
Cu136       N138   2.076       .  S
Cu136       N144   2.077       .  S
N137        N138   1.323       .  A
N137        C141   1.344       .  A
N138        C139   1.346       .  A
C139        C140   1.380       .  A
C139        H142   1.082       .  S
C140        C141   1.378       .  A
C140        C192   1.435       .  S
C141        H143   1.082       .  S
N144        N145   1.324       .  A
N144        C148   1.346       .  A
N145        C146   1.346       .  A
C146        C147   1.380       .  A
C146        H149   1.082       .  S
C147        C148   1.380       .  A
C147        C220   1.438       .  S
C148        H150   1.082       .  S
C151        C152   1.401       .  A
C151        C156   1.401       .  A
C151        C190   1.438       .  S
C152        C153   1.401       .  A
C152        H157   1.085       .  S
C153        C154   1.400       .  A
C153        C274   1.438       .  S
C154        C155   1.400       .  A
C154        H158   1.085       .  S
C155        C156   1.401       .  A
C155        C178   1.438       .  S
C156        H159   1.085       .  S
C160        C161   1.402       .  A
C160        C165   1.401       .  A
C160        C204   1.439       .  S
C161        C162   1.401       .  A
C161        H166   1.085       .  S
C162        C163   1.400       .  A
C162        C290   1.439       .  S
C163        C164   1.400       .  A
C163        H167   1.085       .  S
C164        C165   1.401       .  A
C164        C176   1.438       .  S
C165        H168   1.085       .  S
C169        C170   1.401       .  A
C169        C174   1.401       .  A
C169        C177   1.438       .  S
C170        C171   1.398       .  A
C170        H179   1.084       .  S
C171        C172   1.401   1_554  A
C171        H180   1.083       .  S
C172        C173   1.401   1_556  A
C172        C175   1.438       .  S
C173        C174   1.399       .  A
C173        H181   1.083   1_554  S
C174        H182   1.083       .  S
C175        C176   1.205       .  T
C177        C178   1.205       .  T
C183        C184   1.401       .  A
C183        C188   1.401       .  A
C183        C191   1.438       .  S
C184        C185   1.398       .  A
C184        H193   1.084       .  S
C185        C186   1.401       .  A
C185        H194   1.083       .  S
C186        C187   1.401       .  A
C186        C189   1.438       .  S
C187        C188   1.398       .  A
C187        H195   1.083       .  S
C188        H196   1.083       .  S
C189        C190   1.205       .  T
C191        C192   1.205       .  T
C197        C198   1.401       .  A
C197        C202   1.401       .  A
C197        C205   1.439       .  S
C198        C199   1.399       .  A
C198        H207   1.084       .  S
C199        C200   1.401       .  A
C199        H208   1.083       .  S
C200        C201   1.401       .  A
C200        C203   1.439       .  S
C201        C202   1.399       .  A
C201        H209   1.084       .  S
C202        H210   1.083       .  S
C203        C204   1.206       .  T
C205        C206   1.205       .  T
C211        C212   1.401       .  A
C211        C216   1.402       .  A
C211        C219   1.441       .  S
C212        C213   1.399   1_545  A
C212        H221   1.083       .  S
C213        C214   1.401       .  A
C213        H222   1.083       .  S
C214        C215   1.402       .  A
C214        C217   1.441       .  S
C215        C216   1.400   1_565  A
C215        H223   1.083       .  S
C216        H224   1.083       .  S
C217        C218   1.207       .  T
C219        C220   1.207       .  T
C225        C226   1.401       .  A
C225        C230   1.401       .  A
C225        C233   1.438       .  S
C226        C227   1.398       .  A
C226        H235   1.083       .  S
C227        C228   1.401       .  A
C227        H236   1.083       .  S
C228        C229   1.401       .  A
C228        C231   1.438       .  S
C229        C230   1.398       .  A
C229        H237   1.083       .  S
C230        H238   1.083       .  S
C231        C232   1.205       .  T
C233        C234   1.205       .  T
C239        C240   1.401   1_556  A
C239        C244   1.401   1_556  A
C239        C247   1.438       .  S
C240        C241   1.398       .  A
C240        H249   1.084   1_554  S
C241        C242   1.401       .  A
C241        H250   1.083       .  S
C242        C243   1.401       .  A
C242        C245   1.438       .  S
C243        C244   1.399       .  A
C243        H251   1.083       .  S
C244        H252   1.083   1_554  S
C245        C246   1.205       .  T
C247        C248   1.205       .  T
C253        C254   1.401       .  A
C253        C258   1.401       .  A
C253        C261   1.438       .  S
C254        C255   1.398       .  A
C254        H263   1.083       .  S
C255        C256   1.401       .  A
C255        H264   1.084       .  S
C256        C257   1.401       .  A
C256        C259   1.438       .  S
C257        C258   1.398       .  A
C257        H265   1.083       .  S
C258        H266   1.083       .  S
C259        C260   1.205       .  T
C261        C262   1.205       .  T
C267        C268   1.401       .  A
C267        C272   1.401       .  A
C267        C275   1.437       .  S
C268        C269   1.398       .  A
C268        H277   1.084       .  S
C269        C270   1.401       .  A
C269        H278   1.083       .  S
C270        C271   1.401       .  A
C270        C273   1.438       .  S
C271        C272   1.398       .  A
C271        H279   1.084       .  S
C272        H280   1.083       .  S
C273        C274   1.205       .  T
C275        C276   1.205       .  T
C281        C282   1.401       .  A
C281        C286   1.401       .  A
C281        C289   1.438       .  S
C282        C283   1.399       .  A
C282        H291   1.083       .  S
C283        C284   1.401       .  A
C283        H292   1.083       .  S
C284        C285   1.401       .  A
C284        C287   1.438       .  S
C285        C286   1.398       .  A
C285        H293   1.083       .  S
C286        H294   1.083       .  S
C287        C288   1.205       .  T
C289        C290   1.205       .  T
C295        C296   1.401       .  A
C295        C300   1.401       .  A
C295        C303   1.437       .  S
C296        C297   1.397       .  A
C296        H305   1.084       .  S
C297        C298   1.401       .  A
C297        H306   1.083       .  S
C298        C299   1.401       .  A
C298        C301   1.437       .  S
C299        C300   1.399       .  A
C299        H307   1.083       .  S
C300        H308   1.083       .  S
C301        C302   1.205       .  T
C303        C304   1.205       .  T
C309        C310   1.401       .  A
C309        C314   1.401       .  A
C309        C317   1.439       .  S
C310        C311   1.398       .  A
C310        H319   1.084       .  S
C311        C312   1.401       .  A
C311        H320   1.083       .  S
C312        C313   1.401       .  A
C312        C315   1.438       .  S
C313        C314   1.399       .  A
C313        H321   1.083       .  S
C314        H322   1.083       .  S
C315        C316   1.205       .  T
C317        C318   1.205       .  T
C323        C324   1.401       .  A
C323        C328   1.401       .  A
C323        C331   1.438       .  S
C324        C325   1.399       .  A
C324        H333   1.083       .  S
C325        C326   1.401       .  A
C325        H334   1.083       .  S
C326        C327   1.401       .  A
C326        C329   1.438       .  S
C327        C328   1.398       .  A
C327        H335   1.083       .  S
C328        H336   1.084       .  S
C329        C330   1.205       .  T
C331        C332   1.205       .  T
C337        C338   1.402       .  A
C337        C342   1.402       .  A
C337        C345   1.443       .  S
C338        C339   1.400   1_545  A
C338        H347   1.083       .  S
C339        C340   1.402   1_554  A
C339        H348   1.083   1_554  S
C340        C341   1.402   1_556  A
C340        C343   1.443       .  S
C341        C342   1.400   1_565  A
C341        H349   1.083   1_554  S
C342        H350   1.083       .  S
C343        C344   1.207       .  T
C345        C346   1.208       .  T
C351        C352   1.401       .  A
C351        C356   1.401       .  A
C351        C359   1.439       .  S
C352        C353   1.399       .  A
C352        H361   1.083       .  S
C353        C354   1.401       .  A
C353        H362   1.083       .  S
C354        C355   1.401       .  A
C354        C357   1.439       .  S
C355        C356   1.399       .  A
C355        H363   1.083       .  S
C356        H364   1.083       .  S
C357        C358   1.206       .  T
C359        C360   1.206       .  T
C365        C366   1.401       .  A
C365        C370   1.401       .  A
C365        C373   1.439       .  S
C366        C367   1.399       .  A
C366        H375   1.083       .  S
C367        C368   1.402       .  A
C367        H376   1.083       .  S
C368        C369   1.401       .  A
C368        C371   1.439       .  S
C369        C370   1.399       .  A
C369        H377   1.083       .  S
C370        H378   1.083       .  S
C371        C372   1.206       .  T
C373        C374   1.206       .  T
C379        C380   1.401       .  A
C379        C384   1.401       .  A
C379        C387   1.438       .  S
C380        C381   1.398       .  A
C380        H389   1.084       .  S
C381        C382   1.401       .  A
C381        H390   1.083       .  S
C382        C383   1.401       .  A
C382        C385   1.438       .  S
C383        C384   1.398       .  A
C383        H391   1.084       .  S
C384        H392   1.083       .  S
C385        C386   1.205       .  T
C387        C388   1.205       .  T
C393        C394   1.401       .  A
C393        C398   1.401       .  A
C393        C401   1.438       .  S
C394        C395   1.399       .  A
C394        H403   1.083       .  S
C395        C396   1.401       .  A
C395        H404   1.083       .  S
C396        C397   1.401       .  A
C396        C399   1.438       .  S
C397        C398   1.398       .  A
C397        H405   1.084       .  S
C398        H406   1.083       .  S
C399        C400   1.205       .  T
C401        C402   1.205       .  T
C407        C408   1.401       .  A
C407        C412   1.401       .  A
C407        C415   1.438       .  S
C408        C409   1.398       .  A
C408        H417   1.083       .  S
C409        C410   1.401       .  A
C409        H418   1.083       .  S
C410        C411   1.401       .  A
C410        C413   1.438       .  S
C411        C412   1.398       .  A
C411        H419   1.083       .  S
C412        H420   1.083       .  S
C413        C414   1.205       .  T
C415        C416   1.205       .  T
