geometry optimzed in LAMMPS
_audit_creation_date              2020-12-01 
_audit_creation_method            'lammps2cif' 
_symmetry_space_group_name_H-M    'P1' 
_symmetry_Int_Tables_number       1 
_symmetry_cell_setting            triclinic 
loop_ 
_symmetry_equiv_pos_as_xyz 
  x,y,z 
_cell_length_a                    44.88095472 
_cell_length_b                    43.81242220186409 
_cell_length_c                    64.70519352701058 
_cell_angle_alpha                 89.23792059034758 
_cell_angle_beta                  90.19025643560794 
_cell_angle_gamma                 89.96430592892008 
loop_ 
_atom_site_label 
_atom_site_type_symbol 
_atom_site_fract_x 
_atom_site_fract_y 
_atom_site_fract_z 
_atom_site_charge 
O1          O  0.52374954  0.05315840  0.52366242    -0.73200
O2          O  0.49308548  0.49763609  0.47990232    -0.74200
O3          O  0.49236727  0.49779883  0.52457820    -0.62800
O4          O  0.52488113  0.05251292  0.47984859    -0.71200
O5          O  0.06820631  0.02811191  0.48126587    -0.70800
O6          O  0.03423662  0.47106972  0.52408012    -0.62000
O7          O  0.03651695  0.47335107  0.47985869    -0.74500
O8          O  0.06560820  0.02645188  0.52558865    -0.73300
Cu9        Cu  0.50698121  0.02604934  0.50200618     1.04600
Cu10       Cu  0.05258019  0.49877456  0.50278524     1.04300
C11         C  0.04908172  0.04807714  0.53202038     0.93000
C12         C  0.51092309  0.47848953  0.47184240     0.92100
C13         C  0.50881719  0.47649566  0.53204192     0.84300
C14         C  0.05127503  0.04838335  0.47308499     0.90500
C15         C  0.08931486  0.50311050  0.76163643     0.86200
C16         C  0.09201028  0.02848108  0.74522160    -0.54000
C17         C  0.06551912  0.03627265  0.73620505     0.09100
C18         C  0.03877898  0.51732492  0.74380194     0.20100
C19         C  0.06542302  0.51471960  0.77658401    -0.54700
C20         C  0.03886586  0.02202997  0.76730264     0.09300
C21         C  0.07453862  0.47642315  0.75049166    -0.54300
C22         C  0.04818250  0.48367935  0.74098890     0.09800
H23         H  0.11264234  0.04013591  0.74144394     0.14300
H24         H  0.01744334  0.02357649  0.73610439     0.00100
H25         H  0.06926130  0.51674266  0.79308719     0.14600
H26         H  0.08451703  0.45386648  0.74986962     0.14400
C27         C  0.10047274  0.53342210  0.23071551     0.86200
C28         C  0.07082466  0.53785345  0.21910603    -0.54000
C29         C  0.04624879  0.03898996  0.23144418     0.09100
C30         C  0.05367827  0.53546590  0.25463735     0.20100
C31         C  0.10123999  0.05978764  0.24604993    -0.54700
C32         C  0.07671352  0.06109593  0.25855839     0.09300
C33         C  0.09590153  0.50457579  0.24388296    -0.54300
C34         C  0.07151984  0.50528228  0.25642356     0.09800
H35         H  0.06910819  0.54012157  0.20249148     0.14300
H36         H  0.03373963  0.03647547  0.26470759     0.00100
H37         H  0.11934549  0.07617679  0.24672271     0.14600
H38         H  0.11094434  0.48520435  0.24323549     0.14400
N39         N  0.04947474  0.41175440  0.36603171    -0.27600
N40         N  0.02899610  0.42861992  0.35666062    -0.35400
C41         C  0.51114566  0.44087287  0.37096548     0.00800
C42         C  0.52150745  0.43231389  0.39043469     0.06800
C43         C  0.54589935  0.41377727  0.38657299    -0.06300
H44         H  0.49244304  0.45559253  0.36731925     0.07500
H45         H  0.56031842  0.40284668  0.39786566     0.08700
Cu46       Cu  0.03020869  0.43883276  0.32530843     0.44200
Cu47       Cu  0.07830028  0.38355561  0.35025154     0.42000
Cu48       Cu  0.07697662  0.38930689  0.29501018     0.43900
N49         N  0.04701906  0.45137722  0.29660978    -0.34900
N50         N  0.06484299  0.43360630  0.28583916    -0.29200
C51         C  0.07533657  0.44969720  0.26958918    -0.05300
C52         C  0.06364181  0.47905089  0.27012907     0.06900
C53         C  0.04563060  0.47916702  0.28744303     0.00700
H54         H  0.09117839  0.44088629  0.25861317     0.08400
H55         H  0.03387554  0.49853305  0.29368184     0.07400
N56         N  0.08747181  0.34875246  0.31084073    -0.36400
N57         N  0.08938994  0.34767628  0.33122678    -0.28600
C58         C  0.09386198  0.31868881  0.33745889    -0.03800
C59         C  0.09464588  0.30030027  0.32025109     0.04800
C60         C  0.09064606  0.32016102  0.30355823     0.02900
H61         H  0.09436954  0.31133275  0.35345480     0.08000
H62         H  0.08863163  0.31409594  0.28745613     0.06800
O63         O  0.04746963  0.03216896  0.97660733    -0.73200
O64         O  0.10881159  0.00278965  0.01753281    -0.74200
O65         O  0.10487779  0.00722339  0.97347834    -0.62800
O66         O  0.05208528  0.02875753  0.02060052    -0.71200
O67         O  0.03317249  0.98189236  0.02079893    -0.70800
O68         O  0.08461240  0.96105908  0.97228924    -0.62000
O69         O  0.09010286  0.95605087  0.01607213    -0.74500
O70         O  0.02737455  0.98586737  0.97706279    -0.73300
Cu71       Cu  0.07902432  0.01936609  0.99706232     1.04600
Cu72       Cu  0.05812760  0.96961101  0.99652521     1.04300
C73         C  0.02826266  0.01311699  0.96993171     0.93000
C74         C  0.10837562  0.97500244  0.02384943     0.92100
C75         C  0.10236554  0.98124937  0.96496662     0.84300
C76         C  0.03517729  0.00846464  0.02860911     0.90500
N77         N  0.44915078  0.01346203  0.13398621    -0.27600
N78         N  0.46353011  0.03898032  0.13793724    -0.35400
C79         C  0.47876623  0.04771777  0.12102970     0.00800
C80         C  0.47408561  0.02629258  0.10577767     0.06800
C81         C  0.45504179  0.00496417  0.11455471    -0.06300
H82         H  0.49357960  0.06716811  0.12033276     0.07500
H83         H  0.44701498  0.98416611  0.10762639     0.08700
Cu84       Cu  0.46704663  0.05534567  0.16768259     0.44200
Cu85       Cu  0.42233168  0.99263228  0.15572499     0.42000
Cu86       Cu  0.42619535  0.01807834  0.20903405     0.43900
N87         N  0.48232790  0.05159770  0.19781633    -0.34900
N88         N  0.46902498  0.03631416  0.21293735    -0.29200
C89         C  0.48901831  0.03154850  0.22837661    -0.05300
C90         C  0.51612941  0.04419341  0.22242204     0.06900
C91         C  0.51067657  0.05698875  0.20312315     0.00700
H92         H  0.48499190  0.01742728  0.24191000     0.08400
H93         H  0.02687982  0.06693824  0.19272125     0.07400
N94         N  0.38748227  0.00056822  0.19533423    -0.36400
N95         N  0.38755742  0.98971971  0.17634952    -0.28600
C96         C  0.35980416  0.98199803  0.17092629    -0.03800
C97         C  0.34088176  0.98842108  0.18704648     0.04800
C98         C  0.35914739  0.00015245  0.20239528     0.02900
H99         H  0.35364435  0.97425248  0.15566129     0.08000
H100        H  0.35219301  0.00896435  0.21719836     0.06800
N101        N  0.07326029  0.14617672  0.37043236    -0.27600
N102        N  0.05559850  0.12471274  0.36318351    -0.35400
C103        C  0.04902786  0.10499541  0.37858296     0.00800
C104        C  0.06384132  0.11412615  0.39630006     0.06800
C105        C  0.07897595  0.14036604  0.39049066    -0.06300
H106        H  0.03558061  0.08468104  0.37676229     0.07500
H107        H  0.09377272  0.15381470  0.39995106     0.08700
Cu108      Cu  0.04763822  0.11955816  0.33188936     0.44200
Cu109      Cu  0.08851317  0.18226562  0.35261142     0.42000
Cu110      Cu  0.08428793  0.17558216  0.29778899     0.43900
N111        N  0.05924841  0.11114541  0.30153431    -0.34900
N112        N  0.07442406  0.13038988  0.28964101    -0.29200
C113        C  0.08276796  0.11565255  0.27243911    -0.05300
C114        C  0.07207284  0.08594263  0.27352019     0.06900
C115        C  0.05712615  0.08402622  0.29209819     0.00700
H116        H  0.09590277  0.12573281  0.26013468     0.08400
H117        H  0.04693594  0.06387423  0.29884404     0.07400
N118        N  0.09136301  0.21751746  0.31238286    -0.36400
N119        N  0.09362881  0.21907501  0.33270929    -0.28600
C120        C  0.09619025  0.24835792  0.33824731    -0.03800
C121        C  0.09542920  0.26652043  0.32062545     0.04800
C122        C  0.09240491  0.24620107  0.30441625     0.02900
H123        H  0.09709187  0.25587069  0.35405235     0.08000
H124        H  0.08996297  0.25191190  0.28816967     0.06800
N125        N  0.19727641  0.47178790  0.12876395    -0.27600
N126        N  0.17237858  0.48671407  0.13238559    -0.35400
C127        C  0.15449461  0.48512337  0.11581324     0.00800
C128        C  0.16889436  0.46840452  0.10090226     0.06800
C129        C  0.19610564  0.46027345  0.10956723    -0.06300
H130        H  0.13274589  0.49577637  0.11456602     0.07500
H131        H  0.21378088  0.44745520  0.10239458     0.08700
Cu132      Cu  0.16483402  0.50815938  0.15989553     0.44200
Cu133      Cu  0.23076957  0.47094193  0.15077404     0.42000
Cu134      Cu  0.21783042  0.50612730  0.20248657     0.43900
N135        N  0.15513020  0.52137499  0.18942853    -0.34900
N136        N  0.17315938  0.51957510  0.20557616    -0.29200
C137        C  0.15707429  0.52544357  0.22270383    -0.05300
C138        C  0.12759881  0.53100474  0.21688859     0.06900
C139        C  0.12761366  0.52840467  0.19561092     0.00700
H140        H  0.16568368  0.52398944  0.23832967     0.08400
H141        H  0.10877402  0.52904228  0.18519312     0.07400
N142        N  0.25947643  0.49245722  0.19107723    -0.36400
N143        N  0.26309079  0.47958333  0.17283160    -0.28600
C144        C  0.29218898  0.47545449  0.16938389    -0.03800
C145        C  0.30808683  0.48619452  0.18604338     0.04800
C146        C  0.28667082  0.49678064  0.19963038     0.02900
H147        H  0.30112949  0.46638001  0.15518080     0.08000
H148        H  0.29059803  0.50793618  0.21422991     0.06800
N149        N  0.43621285  0.05864347  0.87017622    -0.27600
N150        N  0.46360077  0.06515489  0.86428873    -0.35400
C151        C  0.48192137  0.06271835  0.88064639     0.00800
C152        C  0.46519488  0.05416924  0.89765579     0.06800
C153        C  0.43625560  0.05171160  0.89049533    -0.06300
H154        H  0.50601876  0.06372758  0.87978169     0.06500
H155        H  0.41731894  0.04271497  0.89890331     0.08700
Cu156      Cu  0.47527816  0.06704347  0.83354590     0.44200
Cu157      Cu  0.40271488  0.05290664  0.84879050     0.42000
Cu158      Cu  0.42103358  0.04086146  0.79442430     0.43900
N159        N  0.48619281  0.05267791  0.80431442    -0.34900
N160        N  0.46729542  0.04287464  0.79011670    -0.29200
C161        C  0.48312060  0.03163891  0.77423181    -0.05300
C162        C  0.51319510  0.03407544  0.77892245     0.06900
C163        C  0.51419259  0.04762760  0.79803457     0.00700
H164        H  0.47342967  0.02075535  0.76086787     0.08400
H165        H  0.03380575  0.05231196  0.80721620     0.07400
N166        N  0.37774042  0.03777698  0.80635109    -0.36400
N167        N  0.37219887  0.04253651  0.82612061    -0.28600
C168        C  0.34360572  0.03644005  0.83004095    -0.03800
C169        C  0.32998119  0.02735350  0.81204080     0.04800
C170        C  0.35219539  0.02856118  0.79714280     0.02900
H171        H  0.33377171  0.03722714  0.84528711     0.08000
H172        H  0.35042318  0.02139945  0.78122257     0.06800
N173        N  0.97419652  0.39345258  0.63780125    -0.27600
N174        N  0.97415656  0.42183779  0.64445504    -0.35400
C175        C  0.47257129  0.44095383  0.62805304     0.00800
C176        C  0.47168286  0.42384639  0.61020439     0.06800
C177        C  0.47273403  0.39380004  0.61702239    -0.06300
H178        H  0.47586087  0.46539938  0.62887127     0.07500
H179        H  0.47606504  0.37393471  0.60753187     0.08700
Cu180      Cu  0.98541177  0.43335443  0.67459549     0.44200
Cu181      Cu  0.98470400  0.35635287  0.65660865     0.42000
Cu182      Cu  0.01546971  0.37116299  0.70703958     0.43900
N183        N  0.00630691  0.43987642  0.70297879    -0.34900
N184        N  0.01795294  0.41745122  0.71429990    -0.29200
C185        C  0.03341770  0.42960136  0.73002004    -0.05300
C186        C  0.03134923  0.46114719  0.72865331     0.06900
C187        C  0.01381034  0.46681516  0.71139207     0.00700
H188        H  0.04620764  0.41641650  0.74115239     0.08400
H189        H  0.00868125  0.48889967  0.70458078     0.07400
N190        N  0.01308419  0.32747092  0.69459936    -0.36400
N191        N  0.00206049  0.32269199  0.67594297    -0.28600
C192        C  0.00698413  0.29357516  0.67077914    -0.03800
C193        C  0.02147235  0.27899296  0.68698365     0.04800
C194        C  0.02496654  0.30110519  0.70193130     0.02900
H195        H  0.00188788  0.28415639  0.65583458     0.08000
H196        H  0.03735178  0.29887933  0.71625685     0.06800
N197        N  0.08630096  0.14558501  0.63011071    -0.27600
N198        N  0.09462178  0.11841045  0.63697571    -0.35400
C199        C  0.09560289  0.09901232  0.62116701     0.00800
C200        C  0.08744308  0.11471721  0.60345078     0.06800
C201        C  0.08163603  0.14424491  0.60960751    -0.06300
H202        H  0.09820477  0.07449006  0.62285839     0.07500
H203        H  0.07150718  0.16229305  0.60036922     0.08700
Cu204      Cu  0.09294590  0.10644538  0.66758540     0.44200
Cu205      Cu  0.07377189  0.17935860  0.65019561     0.42000
Cu206      Cu  0.05260893  0.15547519  0.70293715     0.43900
N207        N  0.07607108  0.09182937  0.69531922    -0.34900
N208        N  0.06031810  0.10861358  0.70815907    -0.29200
C209        C  0.05222818  0.09072351  0.72434669    -0.05300
C210        C  0.06343560  0.06160846  0.72121932     0.06900
C211        C  0.07858905  0.06330899  0.70284774     0.00700
H212        H  0.04045828  0.09861766  0.73781403     0.08400
H213        H  0.09122177  0.04529262  0.69566964     0.07400
N214        N  0.04857467  0.20033855  0.69121068    -0.36400
N215        N  0.05611137  0.20798732  0.67205865    -0.28600
C216        C  0.04844707  0.23708837  0.66826317    -0.03800
C217        C  0.03576400  0.24880963  0.68580747     0.04800
C218        C  0.03627247  0.22502260  0.70020767     0.02900
H219        H  0.05111298  0.24861329  0.65351457     0.08000
H220        H  0.02687712  0.22512282  0.71557445     0.06800
N221        N  0.19417786  0.46149944  0.86286171    -0.27600
N222        N  0.16879370  0.45157620  0.85519751    -0.35400
C223        C  0.14929404  0.44734743  0.87067272     0.00800
C224        C  0.16325687  0.45493582  0.88899323     0.06800
C225        C  0.19172152  0.46383920  0.88347597    -0.06300
H226        H  0.12582551  0.44258294  0.86852903     0.07500
H227        H  0.20820997  0.47427612  0.89336891     0.08700
Cu228      Cu  0.16024224  0.45432841  0.82393635     0.44200
Cu229      Cu  0.22702371  0.47799028  0.84366871     0.42000
Cu230      Cu  0.21001076  0.50031910  0.79005770     0.43900
N231        N  0.14802534  0.47363233  0.79597735    -0.34900
N232        N  0.16463255  0.49179054  0.78424651    -0.29200
C233        C  0.14694864  0.50464913  0.76961866    -0.05300
C234        C  0.11796311  0.49406402  0.77245615     0.06900
C235        C  0.11982633  0.47420317  0.78910189     0.00700
H236        H  0.15454061  0.52125549  0.75831114     0.08400
H237        H  0.10146445  0.46258192  0.79661985     0.07400
N238        N  0.25257442  0.50373897  0.80349958    -0.36400
N239        N  0.25744332  0.49545175  0.82296405    -0.28600
C240        C  0.28561564  0.50160687  0.82808751    -0.03800
C241        C  0.29973670  0.51437024  0.81123199     0.04800
C242        C  0.27824704  0.51531695  0.79570088     0.02900
H243        H  0.29493326  0.49775430  0.84338023     0.08000
H244        H  0.28065083  0.52504887  0.78031733     0.06800
C245        C  0.99120797  0.04857559  0.95318995    -0.02100
C246        C  0.00855060  0.02174980  0.95257470     0.07600
C247        C  0.50861705  0.00381073  0.93457515    -0.02200
C248        C  0.49291302  0.01369045  0.91694253    -0.02200
C249        C  0.47730358  0.04156714  0.91713009     0.07700
C250        C  0.97536668  0.05832624  0.93547594    -0.02400
Br251      Br  0.95155577  0.09493655  0.93606901    -0.01000
Br252      Br  0.98883964  0.07168713  0.97829966    -0.01000
Br253      Br  0.49278432  0.98890695  0.89244866    -0.01000
Br254      Br  0.53201994  0.96678314  0.93317024    -0.01000
C255        C  0.48795825  0.01413410  0.04854442    -0.02100
C256        C  0.01924599  0.01523799  0.04783788     0.07600
C257        C  0.03571296  0.02148492  0.06587616    -0.02200
C258        C  0.02103308  0.02511762  0.08482476    -0.02200
C259        C  0.48957015  0.02380713  0.08568267     0.07700
C260        C  0.47308307  0.01873358  0.06737536    -0.02400
Br261      Br  0.43007472  0.01897115  0.06775678    -0.01000
Br262      Br  0.46557752  0.00737235  0.02348673    -0.01000
Br263      Br  0.04477242  0.02897906  0.10966022    -0.01000
Br264      Br  0.07871387  0.02364162  0.06495769    -0.01000
C265        C  0.13039877  0.98821752  0.91000126    -0.02100
C266        C  0.14834541  0.96191973  0.90861642     0.07600
C267        C  0.15220678  0.94260991  0.92597499    -0.02200
C268        C  0.13743964  0.94905302  0.94457793    -0.02200
C269        C  0.11909803  0.97508802  0.94589884     0.07700
C270        C  0.11589934  0.99488816  0.92861633    -0.02400
Br271      Br  0.09068131  0.03060809  0.92993597    -0.01000
Br272      Br  0.12596757  0.01546521  0.88644439    -0.01000
Br273      Br  0.14326541  0.92288379  0.96847794    -0.01000
Br274      Br  0.17750598  0.40717551  0.92411102    -0.01000
C275        C  0.17144137  0.97609033  0.06251243    -0.02100
C276        C  0.15737272  0.96285108  0.07989264     0.07600
C277        C  0.12970480  0.94813286  0.07757715    -0.02200
C278        C  0.11441765  0.94982575  0.05860614    -0.02200
C279        C  0.12726192  0.96573460  0.04164044     0.07700
C280        C  0.15658387  0.97703845  0.04332210    -0.02400
Br281      Br  0.17621408  0.99434256  0.01937977    -0.01000
Br282      Br  0.20965005  0.99577472  0.06529585    -0.01000
Br283      Br  0.07444317  0.93342161  0.05719796    -0.01000
Br284      Br  0.11220301  0.42656619  0.10079482    -0.01000
C285        C  0.50817069  0.43376561  0.44836322    -0.02100
C286        C  0.50406910  0.46514028  0.45154997     0.07600
C287        C  0.49991043  0.48492495  0.43438818    -0.02200
C288        C  0.50492894  0.47435351  0.41425951    -0.02200
C289        C  0.51148507  0.44310702  0.41103042     0.07700
C290        C  0.51082460  0.42258225  0.42814396    -0.02400
Br291      Br  0.51289419  0.37902761  0.42418122    -0.01000
Br292      Br  0.51016541  0.40630125  0.47189313    -0.01000
Br293      Br  0.00649624  0.50433694  0.39206526    -0.01000
Br294      Br  0.49017943  0.52749628  0.43829028    -0.01000
C295        C  0.02051228  0.45451805  0.56718867    -0.02100
C296        C  0.49952300  0.45972778  0.55108503     0.07600
C297        C  0.46941199  0.45133465  0.55423454    -0.02200
C298        C  0.46015425  0.43966430  0.57361074    -0.02200
C299        C  0.48110716  0.43486138  0.58955280     0.07700
C300        C  0.01140415  0.44131321  0.58604403    -0.02400
Br301      Br  0.04061645  0.43234264  0.60733055    -0.01000
Br302      Br  0.06147677  0.46784126  0.56474116    -0.01000
Br303      Br  0.41864458  0.43117547  0.57865682    -0.01000
Br304      Br  0.44089224  0.45469998  0.53192054    -0.01000
C305        C  0.06931020  0.05037723  0.43656594    -0.02100
C306        C  0.06098371  0.06589373  0.45464200     0.07600
C307        C  0.05751025  0.09780851  0.45401848    -0.02200
C308        C  0.05937339  0.11387724  0.43508446    -0.02200
C309        C  0.06496629  0.09797730  0.41660042     0.07700
C310        C  0.07119861  0.06633501  0.41759207    -0.02400
Br311      Br  0.08317788  0.04455515  0.39316844    -0.01000
Br312      Br  0.07663880  0.00689395  0.43733229    -0.01000
Br313      Br  0.05205219  0.15731860  0.43471737    -0.01000
Br314      Br  0.05058680  0.11946238  0.47936251    -0.01000
C315        C  0.04718688  0.09145750  0.58240066    -0.02100
C316        C  0.07722350  0.10018476  0.58438945     0.07600
C317        C  0.09802840  0.09216677  0.56924338    -0.02200
C318        C  0.08876218  0.07611441  0.55168221    -0.02200
C319        C  0.05874018  0.06669155  0.54975311     0.07700
C320        C  0.03805275  0.07411834  0.56540598    -0.02400
Br321      Br  0.49785309  0.05814466  0.56505870    -0.01000
Br322      Br  0.01883498  0.10179660  0.60364314    -0.01000
Br323      Br  0.11740040  0.06795355  0.53024463    -0.01000
Br324      Br  0.13946596  0.10253099  0.57303218    -0.01000
O325        O  0.52374957  0.55315906  0.52366338    -0.73200
O326        O  0.49308547  0.99763506  0.47990165    -0.74200
O327        O  0.49236743  0.99779807  0.52457752    -0.62800
O328        O  0.52488125  0.55251392  0.47984944    -0.71200
O329        O  0.06820621  0.52811178  0.48126554    -0.70800
O330        O  0.03423650  0.97106979  0.52408034    -0.62000
O331        O  0.03651689  0.97335129  0.47985894    -0.74500
O332        O  0.06560812  0.52645193  0.52558832    -0.73300
Cu333      Cu  0.50698120  0.52605022  0.50200697     1.04600
Cu334      Cu  0.05258019  0.99877466  0.50278552     1.04300
C335        C  0.04908157  0.54807716  0.53202000     0.93000
C336        C  0.51092311  0.97848855  0.47184172     0.92100
C337        C  0.50881744  0.97649502  0.53204129     0.84300
C338        C  0.05127487  0.54838315  0.47308465     0.90500
C339        C  0.08931491  0.00311036  0.76163627     0.86200
C340        C  0.09201027  0.52848123  0.74522176    -0.54000
C341        C  0.06551914  0.53627279  0.73620518     0.09100
C342        C  0.03877898  0.01732479  0.74380187     0.20100
C343        C  0.06542313  0.01471947  0.77658389    -0.54700
C344        C  0.03886578  0.52203010  0.76730272     0.09300
C345        C  0.07453863  0.97642300  0.75049154    -0.54300
C346        C  0.04818248  0.98367920  0.74098882     0.09800
H347        H  0.11264238  0.54013608  0.74144413     0.14300
H348        H  0.01744338  0.52357662  0.73610443     0.00100
H349        H  0.06926146  0.01674253  0.79308707     0.14600
H350        H  0.08451702  0.95386634  0.74986949     0.14400
C351        C  0.10047253  0.03342210  0.23071553     0.86200
C352        C  0.07082444  0.03785348  0.21910608    -0.54000
C353        C  0.04624899  0.53898988  0.23144411     0.09100
C354        C  0.05367811  0.03546603  0.25463741     0.20100
C355        C  0.10124012  0.55978762  0.24604993    -0.54700
C356        C  0.07671362  0.56109585  0.25855837     0.09300
C357        C  0.09590129  0.00457583  0.24388302    -0.54300
C358        C  0.07151962  0.00528239  0.25642363     0.09800
H359        H  0.06910794  0.04012155  0.20249154     0.14300
H360        H  0.03373978  0.53647527  0.26470751     0.00100
H361        H  0.11934558  0.57617684  0.24672272     0.14600
H362        H  0.11094408  0.98520431  0.24323556     0.14400
N363        N  0.04947464  0.91175458  0.36603189    -0.27600
N364        N  0.02899606  0.92862022  0.35666085    -0.35400
C365        C  0.51114487  0.94087147  0.37096480     0.00800
C366        C  0.52150666  0.93231269  0.39043404     0.06800
C367        C  0.54589891  0.91377654  0.38657245    -0.06300
H368        H  0.49244204  0.95559086  0.36731849     0.07500
H369        H  0.56031812  0.90284626  0.39786520     0.08700
Cu370      Cu  0.03020858  0.93883312  0.32530865     0.44200
Cu371      Cu  0.07830000  0.88355567  0.35025164     0.42000
Cu372      Cu  0.07697622  0.88930708  0.29501029     0.43900
N373        N  0.04701885  0.95137750  0.29660995    -0.34900
N374        N  0.06484267  0.93360651  0.28583930    -0.29200
C375        C  0.07533620  0.94969735  0.26958929    -0.05300
C376        C  0.06364156  0.97905106  0.27012918     0.06900
C377        C  0.04563044  0.97916727  0.28744318     0.00700
H378        H  0.09117800  0.94088632  0.25861320     0.08400
H379        H  0.03387544  0.99853342  0.29368203     0.07400
N380        N  0.08747139  0.84875262  0.31084077    -0.36400
N381        N  0.08938955  0.84767637  0.33122681    -0.28600
C382        C  0.09386155  0.81868887  0.33745888    -0.03800
C383        C  0.09464539  0.80030039  0.32025103     0.04800
C384        C  0.09064559  0.82016121  0.30355822     0.02900
H385        H  0.09436913  0.81133276  0.35345473     0.08000
H386        H  0.08863110  0.81409617  0.28745604     0.06800
O387        O  0.04746965  0.53216860  0.97660727    -0.73200
O388        O  0.10881166  0.50278954  0.01753280    -0.74200
O389        O  0.10487782  0.50722303  0.97347831    -0.62800
O390        O  0.05208534  0.52875740  0.02060047    -0.71200
O391        O  0.03317255  0.48189223  0.02079897    -0.70800
O392        O  0.08461248  0.46105869  0.97228934    -0.62000
O393        O  0.09010295  0.45605074  0.01607226    -0.74500
O394        O  0.02737460  0.48586699  0.97706282    -0.73300
Cu395      Cu  0.07902436  0.51936585  0.99706228     1.04600
Cu396      Cu  0.05812767  0.46961075  0.99652528     1.04300
C397        C  0.02826269  0.51311659  0.96993169     0.93000
C398        C  0.10837571  0.47500237  0.02384950     0.92100
C399        C  0.10236560  0.48124896  0.96496666     0.84300
C400        C  0.03517734  0.50846454  0.02860909     0.90500
N401        N  0.44915082  0.51346200  0.13398651    -0.27600
N402        N  0.46353005  0.53898035  0.13793754    -0.35400
C403        C  0.47876606  0.54771789  0.12102998     0.00800
C404        C  0.47408549  0.52629271  0.10577794     0.06800
C405        C  0.45504180  0.50496419  0.11455499    -0.06300
H406        H  0.49357938  0.56716833  0.12033303     0.07500
H407        H  0.44701510  0.48416616  0.10762670     0.08700
Cu408      Cu  0.46704664  0.55534563  0.16768290     0.44200
Cu409      Cu  0.42233191  0.49263206  0.15572531     0.42000
Cu410      Cu  0.42619561  0.51807805  0.20903437     0.43900
N411        N  0.48232802  0.55159768  0.19781662    -0.34900
N412        N  0.46902518  0.53631406  0.21293765    -0.29200
C413        C  0.48901856  0.53154851  0.22837687    -0.05300
C414        C  0.51612959  0.54419355  0.22242231     0.06900
C415        C  0.51067667  0.55698887  0.20312342     0.00700
H416        H  0.48499222  0.51742720  0.24191031     0.08400
H417        H  0.02688006  0.56693818  0.19272116     0.07400
N418        N  0.38748251  0.50056792  0.19533456    -0.36400
N419        N  0.38755767  0.48971943  0.17634984    -0.28600
C420        C  0.35980440  0.48199779  0.17092657    -0.03800
C421        C  0.34088199  0.48842086  0.18704676     0.04800
C422        C  0.35914762  0.50015218  0.20239557     0.02900
H423        H  0.35364463  0.47425233  0.15566162     0.08000
H424        H  0.35219321  0.50896412  0.21719869     0.06800
N425        N  0.07325970  0.64617681  0.37043216    -0.27600
N426        N  0.05559804  0.62471274  0.36318330    -0.35400
C427        C  0.04902754  0.60499534  0.37858274     0.00800
C428        C  0.06384095  0.61412616  0.39629984     0.06800
C429        C  0.07897541  0.64036616  0.39049045    -0.06300
H430        H  0.03558042  0.58468087  0.37676207     0.07500
H431        H  0.09377210  0.65381488  0.39995085     0.08700
Cu432      Cu  0.04763778  0.61955815  0.33188917     0.44200
Cu433      Cu  0.08851245  0.68226575  0.35261122     0.42000
Cu434      Cu  0.08428737  0.67558228  0.29778880     0.43900
N435        N  0.05924812  0.61114540  0.30153416    -0.34900
N436        N  0.07442373  0.63038992  0.28964085    -0.29200
C437        C  0.08276778  0.61565256  0.27243901    -0.05300
C438        C  0.07207280  0.58594258  0.27352011     0.06900
C439        C  0.05712605  0.58402621  0.29209807     0.00700
H440        H  0.09590260  0.62573285  0.26013457     0.08400
H441        H  0.04693580  0.56387399  0.29884400     0.07400
N442        N  0.09136239  0.71751761  0.31238269    -0.36400
N443        N  0.09362815  0.71907512  0.33270912    -0.28600
C444        C  0.09618962  0.74835800  0.33824714    -0.03800
C445        C  0.09542864  0.76652056  0.32062534     0.04800
C446        C  0.09240435  0.74620123  0.30441611     0.02900
H447        H  0.09709123  0.75587078  0.35405235     0.08000
H448        H  0.08996247  0.75191210  0.28816955     0.06800
N449        N  0.19727610  0.97178761  0.12876392    -0.27600
N450        N  0.17237824  0.98671371  0.13238557    -0.35400
C451        C  0.15449428  0.98512305  0.11581321     0.00800
C452        C  0.16889410  0.96840427  0.10090221     0.06800
C453        C  0.19610535  0.96027324  0.10956719    -0.06300
H454        H  0.13274562  0.99577599  0.11456599     0.07500
H455        H  0.21378073  0.94745498  0.10239449     0.08700
Cu456      Cu  0.16483362  0.00815898  0.15989551     0.44200
Cu457      Cu  0.23076929  0.97094168  0.15077397     0.42000
Cu458      Cu  0.21783018  0.00612724  0.20248644     0.43900
N459        N  0.15512986  0.02137472  0.18942851    -0.34900
N460        N  0.17315912  0.01957496  0.20557611    -0.29200
C461        C  0.15707408  0.02544352  0.22270378    -0.05300
C462        C  0.12759857  0.03100463  0.21688858     0.06900
C463        C  0.12761336  0.02840441  0.19561093     0.00700
H464        H  0.16568355  0.02398951  0.23832965     0.08400
H465        H  0.10877359  0.02904194  0.18519311     0.07400
N466        N  0.25947620  0.99245722  0.19107706    -0.36400
N467        N  0.26309054  0.97958326  0.17283146    -0.28600
C468        C  0.29218875  0.97545448  0.16938370    -0.03800
C469        C  0.30808660  0.98619465  0.18604316     0.04800
C470        C  0.28667061  0.99678077  0.19963019     0.02900
H471        H  0.30112919  0.96638000  0.15518069     0.08000
H472        H  0.29059782  0.00793632  0.21422958     0.06800
N473        N  0.43621278  0.55864317  0.87017647    -0.27600
N474        N  0.46360069  0.56515465  0.86428900    -0.35400
C475        C  0.48192127  0.56271823  0.88064668     0.00800
C476        C  0.46519475  0.55416914  0.89765608     0.06800
C477        C  0.43625550  0.55171137  0.89049559    -0.06300
H478        H  0.50601862  0.56372754  0.87978201     0.06500
H479        H  0.41731888  0.54271472  0.89890355     0.08700
Cu480      Cu  0.47527813  0.56704324  0.83354617     0.44200
Cu481      Cu  0.40271486  0.55290618  0.84879074     0.42000
Cu482      Cu  0.42103350  0.54086142  0.79442450     0.43900
N483        N  0.48619275  0.55267780  0.80431465    -0.34900
N484        N  0.46729534  0.54287463  0.79011691    -0.29200
C485        C  0.48312048  0.53163891  0.77423200    -0.05300
C486        C  0.51319499  0.53407536  0.77892265     0.06900
C487        C  0.51419247  0.54762745  0.79803477     0.00700
H488        H  0.47342954  0.52075543  0.76086809     0.08400
H489        H  0.03380546  0.55231207  0.80721622     0.07400
N490        N  0.37774037  0.53777670  0.80635131    -0.36400
N491        N  0.37219885  0.54253604  0.82612085    -0.28600
C492        C  0.34360570  0.53643946  0.83004122    -0.03800
C493        C  0.32998119  0.52735303  0.81204101     0.04800
C494        C  0.35219536  0.52856091  0.79714301     0.02900
H495        H  0.33377181  0.53722639  0.84528725     0.08000
H496        H  0.35042314  0.52139931  0.78122271     0.06800
N497        N  0.97419635  0.89345241  0.63780132    -0.27600
N498        N  0.97415630  0.92183760  0.64445513    -0.35400
C499        C  0.47257199  0.94095383  0.62805262     0.00800
C500        C  0.47168347  0.92384629  0.61020400     0.06800
C501        C  0.47273447  0.89379998  0.61702209    -0.06300
H502        H  0.47586166  0.96539932  0.62887078     0.07500
H503        H  0.47606532  0.87393450  0.60753159     0.08700
Cu504      Cu  0.98541150  0.93335420  0.67459558     0.44200
Cu505      Cu  0.98470403  0.85635271  0.65660867     0.42000
Cu506      Cu  0.01546970  0.87116279  0.70703962     0.43900
N507        N  0.00630671  0.93987620  0.70297885    -0.34900
N508        N  0.01795284  0.91745102  0.71429994    -0.29200
C509        C  0.03341765  0.92960120  0.73002002    -0.05300
C510        C  0.03134915  0.96114701  0.72865330     0.06900
C511        C  0.01381015  0.96681497  0.71139210     0.00700
H512        H  0.04620771  0.91641633  0.74115237     0.08400
H513        H  0.00868102  0.98889939  0.70458083     0.07400
N514        N  0.01308432  0.82747075  0.69459934    -0.36400
N515        N  0.00206065  0.82269185  0.67594293    -0.28600
C516        C  0.00698440  0.79357506  0.67077907    -0.03800
C517        C  0.02147266  0.77899286  0.68698355     0.04800
C518        C  0.02496675  0.80110504  0.70193123     0.02900
H519        H  0.00188816  0.78415630  0.65583444     0.08000
H520        H  0.03735200  0.79887917  0.71625683     0.06800
N521        N  0.08630071  0.64558477  0.63011049    -0.27600
N522        N  0.09462126  0.61841010  0.63697545    -0.35400
C523        C  0.09560228  0.59901203  0.62116671     0.00800
C524        C  0.08744270  0.61471708  0.60345050     0.06800
C525        C  0.08163585  0.64424481  0.60960727    -0.06300
H526        H  0.09820398  0.57448973  0.62285805     0.07500
H527        H  0.07150728  0.66229301  0.60036903     0.08700
Cu528      Cu  0.09294535  0.60644493  0.66758513     0.44200
Cu529      Cu  0.07377197  0.67935844  0.65019543     0.42000
Cu530      Cu  0.05260935  0.65547520  0.70293708     0.43900
N531        N  0.07607087  0.59182917  0.69531910    -0.34900
N532        N  0.06031827  0.60861358  0.70815905    -0.29200
C533        C  0.05222853  0.59072369  0.72434678    -0.05300
C534        C  0.06343564  0.56160853  0.72121941     0.06900
C535        C  0.07858876  0.56330880  0.70284768     0.00700
H536        H  0.04045886  0.59861806  0.73781427     0.08400
H537        H  0.09122116  0.54529232  0.69566954     0.07400
N538        N  0.04857508  0.70033851  0.69121056    -0.36400
N539        N  0.05611165  0.70798723  0.67205851    -0.28600
C540        C  0.04844730  0.73708827  0.66826302    -0.03800
C541        C  0.03576434  0.74880955  0.68580734     0.04800
C542        C  0.03627293  0.72502257  0.70020756     0.02900
H543        H  0.05111309  0.74861314  0.65351440     0.08000
H544        H  0.02687766  0.72512281  0.71557439     0.06800
N545        N  0.19417779  0.96150031  0.86286164    -0.27600
N546        N  0.16879370  0.95157684  0.85519746    -0.35400
C547        C  0.14929408  0.94734802  0.87067268     0.00800
C548        C  0.16325685  0.95493660  0.88899317     0.06800
C549        C  0.19172144  0.96384017  0.88347589    -0.06300
H550        H  0.12582555  0.94258330  0.86852900     0.07500
H551        H  0.20820983  0.97427722  0.89336881     0.08700
Cu552      Cu  0.16024229  0.95432867  0.82393629     0.44200
Cu553      Cu  0.22702359  0.97799117  0.84366861     0.42000
Cu554      Cu  0.21001079  0.00031929  0.79005751     0.43900
N555        N  0.14802544  0.97363234  0.79597720    -0.34900
N556        N  0.16463261  0.99179054  0.78424633    -0.29200
C557        C  0.14694870  0.00464905  0.76961845    -0.05300
C558        C  0.11796318  0.99406388  0.77245596     0.06900
C559        C  0.11982641  0.97420308  0.78910174     0.00700
H560        H  0.15454061  0.02125536  0.75831094     0.08400
H561        H  0.10146464  0.96258192  0.79661969     0.07400
N562        N  0.25257442  0.00373938  0.80349940    -0.36400
N563        N  0.25744326  0.99545241  0.82296392    -0.28600
C564        C  0.28561557  0.00160759  0.82808739    -0.03800
C565        C  0.29973668  0.01437075  0.81123182     0.04800
C566        C  0.27824706  0.01531726  0.79570067     0.02900
H567        H  0.29493314  0.99775520  0.84338012     0.08000
H568        H  0.28065090  0.02504899  0.78031705     0.06800
C569        C  0.99120796  0.54857516  0.95318993    -0.02100
C570        C  0.00855058  0.52174936  0.95257469     0.07600
C571        C  0.50861694  0.50381076  0.93457549    -0.02200
C572        C  0.49291287  0.51369041  0.91694287    -0.02200
C573        C  0.47730344  0.54156710  0.91713040     0.07700
C574        C  0.97536664  0.55832580  0.93547593    -0.02400
Br575      Br  0.95155569  0.59493608  0.93606900    -0.01000
Br576      Br  0.98883970  0.57168677  0.97829962    -0.01000
Br577      Br  0.49278411  0.48890680  0.89244905    -0.01000
Br578      Br  0.53201989  0.46678321  0.93317060    -0.01000
C579        C  0.48795817  0.51413418  0.04854470    -0.02100
C580        C  0.01924604  0.51523795  0.04783786     0.07600
C581        C  0.03571302  0.52148486  0.06587614    -0.02200
C582        C  0.02103314  0.52511754  0.08482474    -0.02200
C583        C  0.48957003  0.52380731  0.08568294     0.07700
C584        C  0.47308297  0.51873365  0.06737563    -0.02400
Br585      Br  0.43007462  0.51897105  0.06775706    -0.01000
Br586      Br  0.46557746  0.50737235  0.02348701    -0.01000
Br587      Br  0.04477248  0.52897893  0.10966021    -0.01000
Br588      Br  0.07871393  0.52364154  0.06495767    -0.01000
C589        C  0.13039880  0.48821685  0.91000127    -0.02100
C590        C  0.14834545  0.46191905  0.90861648     0.07600
C591        C  0.15220685  0.44260932  0.92597510    -0.02200
C592        C  0.13743970  0.44905252  0.94457802    -0.02200
C593        C  0.11909808  0.47508751  0.94589889     0.07700
C594        C  0.11589937  0.49488757  0.92861632    -0.02400
Br595      Br  0.09068133  0.53060750  0.92993589    -0.01000
Br596      Br  0.12596760  0.51546446  0.88644436    -0.01000
Br597      Br  0.14326548  0.42288339  0.96847809    -0.01000
Br598      Br  0.17750587  0.90717608  0.92411083    -0.01000
C599        C  0.17144153  0.47609051  0.06251248    -0.02100
C600        C  0.15737294  0.46285126  0.07989270     0.07600
C601        C  0.12970504  0.44813299  0.07757725    -0.02200
C602        C  0.11441784  0.44982580  0.05860626    -0.02200
C603        C  0.12726205  0.46573465  0.04164053     0.07700
C604        C  0.15658398  0.47703857  0.04332216    -0.02400
Br605      Br  0.17621412  0.49434271  0.01937980    -0.01000
Br606      Br  0.20965019  0.49577493  0.06529584    -0.01000
Br607      Br  0.07444340  0.43342155  0.05719813    -0.01000
Br608      Br  0.11220268  0.92656604  0.10079467    -0.01000
C609        C  0.50817039  0.93376458  0.44836258    -0.02100
C610        C  0.50406903  0.96513929  0.45154930     0.07600
C611        C  0.49991016  0.98492392  0.43438751    -0.02200
C612        C  0.50492808  0.97435235  0.41425880    -0.02200
C613        C  0.51148421  0.94310585  0.41102974     0.07700
C614        C  0.51082402  0.92258115  0.42814333    -0.02400
Br615      Br  0.51289373  0.87902650  0.42418062    -0.01000
Br616      Br  0.51016518  0.90630028  0.47189252    -0.01000
Br617      Br  0.00649680  0.00433732  0.39206555    -0.01000
Br618      Br  0.49017972  0.02749538  0.43828961    -0.01000
C619        C  0.02051212  0.95451770  0.56718878    -0.02100
C620        C  0.49952339  0.95972730  0.55108449     0.07600
C621        C  0.46941245  0.95133389  0.55423401    -0.02200
C622        C  0.46015480  0.93966360  0.57361025    -0.02200
C623        C  0.48110771  0.93486114  0.58955237     0.07700
C624        C  0.01140392  0.94131281  0.58604411    -0.02400
Br625      Br  0.04061620  0.93234180  0.60733056    -0.01000
Br626      Br  0.06147675  0.96784044  0.56474124    -0.01000
Br627      Br  0.41864523  0.93117424  0.57865629    -0.01000
Br628      Br  0.44089271  0.95469881  0.53191998    -0.01000
C629        C  0.06931020  0.55037721  0.43656564    -0.02100
C630        C  0.06098353  0.56589361  0.45464169     0.07600
C631        C  0.05750984  0.59780837  0.45401821    -0.02200
C632        C  0.05937294  0.61387716  0.43508420    -0.02200
C633        C  0.06496604  0.59797730  0.41660017     0.07700
C634        C  0.07119860  0.56633506  0.41759180    -0.02400
Br635      Br  0.08317815  0.54455537  0.39316816    -0.01000
Br636      Br  0.07663898  0.50689396  0.43733194    -0.01000
Br637      Br  0.05205138  0.65731846  0.43471714    -0.01000
Br638      Br  0.05058606  0.61946214  0.47936224    -0.01000
C639        C  0.04718654  0.59145761  0.58240024    -0.02100
C640        C  0.07722315  0.60018480  0.58438910     0.07600
C641        C  0.09802810  0.59216686  0.56924305    -0.02200
C642        C  0.08876193  0.57611454  0.55168185    -0.02200
C643        C  0.05873994  0.56669167  0.54975270     0.07700
C644        C  0.03805244  0.57411849  0.56540553    -0.02400
Br645      Br  0.49785352  0.55814445  0.56506001    -0.01000
Br646      Br  0.01883457  0.60179673  0.60364268    -0.01000
Br647      Br  0.11740020  0.56795376  0.53024429    -0.01000
Br648      Br  0.13946565  0.60253107  0.57303192    -0.01000
O649        O  0.02374992  0.05315886  0.52366312    -0.73200
O650        O  0.99308579  0.49763552  0.47990183    -0.74200
O651        O  0.99236761  0.49779844  0.52457769    -0.62800
O652        O  0.02488162  0.05251370  0.47984921    -0.71200
O653        O  0.56820592  0.02811133  0.48126526    -0.70800
O654        O  0.53423619  0.47107000  0.52408057    -0.62000
O655        O  0.53651655  0.47335151  0.47985919    -0.74500
O656        O  0.56560790  0.02645157  0.52558804    -0.73300
Cu657      Cu  0.00698155  0.02605001  0.50200673     1.04600
Cu658      Cu  0.55257985  0.49877487  0.50278575     1.04300
C659        C  0.54908136  0.04807683  0.53201970     0.93000
C660        C  0.01092345  0.47848901  0.47184191     0.92100
C661        C  0.00881761  0.47649537  0.53204146     0.84300
C662        C  0.55127456  0.04838270  0.47308439     0.90500
C663        C  0.58931480  0.50311018  0.76163643     0.86200
C664        C  0.59201039  0.02848117  0.74522166    -0.54000
C665        C  0.56551925  0.03627271  0.73620508     0.09100
C666        C  0.53877887  0.51732461  0.74380202     0.20100
C667        C  0.56542302  0.51471929  0.77658405    -0.54700
C668        C  0.53886591  0.02202993  0.76730262     0.09300
C669        C  0.57453853  0.47642282  0.75049170    -0.54300
C670        C  0.54818237  0.48367902  0.74098898     0.09800
H671        H  0.61264248  0.04013604  0.74144402     0.14300
H672        H  0.51744350  0.02357648  0.73610434     0.00100
H673        H  0.56926135  0.51674237  0.79308721     0.14600
H674        H  0.58451692  0.45386617  0.74986965     0.14400
C675        C  0.60047267  0.53342196  0.23071569     0.86200
C676        C  0.57082458  0.53785340  0.21910622    -0.54000
C677        C  0.54624873  0.03898968  0.23144408     0.09100
C678        C  0.55367824  0.53546601  0.25463756     0.20100
C679        C  0.60123981  0.05978759  0.24604987    -0.54700
C680        C  0.57671331  0.06109579  0.25855831     0.09300
C681        C  0.59590136  0.50457570  0.24388318    -0.54300
C682        C  0.57151969  0.50528234  0.25642380     0.09800
H683        H  0.56910808  0.54012143  0.20249172     0.14300
H684        H  0.53373952  0.03647512  0.26470748     0.00100
H685        H  0.61934523  0.07617686  0.24672264     0.14600
H686        H  0.61094411  0.48520418  0.24323573     0.14400
N687        N  0.54947438  0.41175461  0.36603214    -0.27600
N688        N  0.52899593  0.42862042  0.35666109    -0.35400
C689        C  0.01114568  0.44087216  0.37096498     0.00800
C690        C  0.02150750  0.43231337  0.39043420     0.06800
C691        C  0.04589963  0.41377705  0.38657255    -0.06300
H692        H  0.99244276  0.45559172  0.36731869     0.07500
H693        H  0.06031881  0.40284667  0.39786525     0.08700
Cu694      Cu  0.53020853  0.43883332  0.32530890     0.44200
Cu695      Cu  0.57829954  0.38355550  0.35025186     0.42000
Cu696      Cu  0.57697595  0.38930710  0.29501050     0.43900
N697        N  0.54701881  0.45137761  0.29661017    -0.34900
N698        N  0.56484254  0.43360654  0.28583951    -0.29200
C699        C  0.57533613  0.44969730  0.26958946    -0.05300
C700        C  0.56364156  0.47905107  0.27012937     0.06900
C701        C  0.54563049  0.47916737  0.28744338     0.00700
H702        H  0.59117773  0.44088628  0.25861346     0.08400
H703        H  0.53387557  0.49853357  0.29368222     0.07400
N704        N  0.58747101  0.34875260  0.31084093    -0.36400
N705        N  0.58938909  0.34767626  0.33122697    -0.28600
C706        C  0.59386107  0.31868872  0.33745901    -0.03800
C707        C  0.59464496  0.30030033  0.32025110     0.04800
C708        C  0.59064521  0.32016121  0.30355832     0.02900
H709        H  0.59436859  0.31133259  0.35345474     0.08000
H710        H  0.58863079  0.31409626  0.28745618     0.06800
O711        O  0.54746968  0.03216849  0.97660717    -0.73200
O712        O  0.60881164  0.00278932  0.01753269    -0.74200
O713        O  0.60487785  0.00722290  0.97347822    -0.62800
O714        O  0.55208534  0.02875720  0.02060036    -0.71200
O715        O  0.53317255  0.98189202  0.02079883    -0.70800
O716        O  0.58461248  0.96105858  0.97228918    -0.62000
O717        O  0.59010292  0.95605052  0.01607209    -0.74500
O718        O  0.52737461  0.98586689  0.97706268    -0.73300
Cu719      Cu  0.57902437  0.01936568  0.99706218     1.04600
Cu720      Cu  0.55812767  0.96961060  0.99652513     1.04300
C721        C  0.52826271  0.01311650  0.96993157     0.93000
C722        C  0.60837567  0.97500213  0.02384937     0.92100
C723        C  0.60236562  0.98124886  0.96496654     0.84300
C724        C  0.53517735  0.00846432  0.02860897     0.90500
N725        N  0.94915069  0.01346217  0.13398632    -0.27600
N726        N  0.96353000  0.03898046  0.13793737    -0.35400
C727        C  0.97876609  0.04771797  0.12102983     0.00800
C728        C  0.97408547  0.02629281  0.10577778     0.06800
C729        C  0.95504168  0.00496437  0.11455481    -0.06300
H730        H  0.99357944  0.06716830  0.12033291     0.07500
H731        H  0.94701489  0.98416632  0.10762648     0.08700
Cu732      Cu  0.96704656  0.05534573  0.16768273     0.44200
Cu733      Cu  0.92233166  0.99263235  0.15572511     0.42000
Cu734      Cu  0.92619539  0.01807836  0.20903420     0.43900
N735        N  0.98232790  0.05159779  0.19781645    -0.34900
N736        N  0.96902502  0.03631423  0.21293749    -0.29200
C737        C  0.98901838  0.03154864  0.22837673    -0.05300
C738        C  0.01612945  0.04419362  0.22242215     0.06900
C739        C  0.01067657  0.05698893  0.20312325     0.00700
H740        H  0.98499202  0.01742740  0.24191015     0.08400
H741        H  0.52687991  0.06693807  0.19272112     0.07400
N742        N  0.88748227  0.00056831  0.19533437    -0.36400
N743        N  0.88755742  0.98971981  0.17634965    -0.28600
C744        C  0.85980414  0.98199817  0.17092639    -0.03800
C745        C  0.84088175  0.98842124  0.18704659     0.04800
C746        C  0.85914740  0.00015256  0.20239537     0.02900
H747        H  0.85364437  0.97425269  0.15566146     0.08000
H748        H  0.85219296  0.00896454  0.21719859     0.06800
N749        N  0.57325918  0.14617672  0.37043208    -0.27600
N750        N  0.55559759  0.12471261  0.36318318    -0.35400
C751        C  0.54902716  0.10499514  0.37858259     0.00800
C752        C  0.56384053  0.11412596  0.39629970     0.06800
C753        C  0.57897487  0.14036602  0.39049035    -0.06300
H754        H  0.53558011  0.08468060  0.37676187     0.07500
H755        H  0.59377158  0.15381484  0.39995083     0.08700
Cu756      Cu  0.54763735  0.11955810  0.33188905     0.44200
Cu757      Cu  0.58851191  0.18226567  0.35261115     0.42000
Cu758      Cu  0.58428688  0.17558229  0.29778869     0.43900
N759        N  0.55924768  0.11114539  0.30153404    -0.34900
N760        N  0.57442327  0.13038992  0.28964073    -0.29200
C761        C  0.58276734  0.11565255  0.27243890    -0.05300
C762        C  0.57207242  0.08594255  0.27352002     0.06900
C763        C  0.55712567  0.08402618  0.29209798     0.00700
H764        H  0.59590219  0.12573285  0.26013445     0.08400
H765        H  0.54693548  0.06387399  0.29884391     0.07400
N766        N  0.59136192  0.21751758  0.31238263    -0.36400
N767        N  0.59362767  0.21907504  0.33270906    -0.28600
C768        C  0.59618917  0.24835790  0.33824714    -0.03800
C769        C  0.59542820  0.26652050  0.32062535     0.04800
C770        C  0.59240391  0.24620122  0.30441610     0.02900
H771        H  0.59709076  0.25587060  0.35405228     0.08000
H772        H  0.58996203  0.25191217  0.28816946     0.06800
N773        N  0.69727647  0.47178795  0.12876402    -0.27600
N774        N  0.67237864  0.48671412  0.13238565    -0.35400
C775        C  0.65449470  0.48512351  0.11581328     0.00800
C776        C  0.66889449  0.46840469  0.10090230     0.06800
C777        C  0.69610574  0.46027357  0.10956728    -0.06300
H778        H  0.63274604  0.49577646  0.11456606     0.07500
H779        H  0.71378098  0.44745530  0.10239464     0.08700
Cu780      Cu  0.66483395  0.50815929  0.15989563     0.44200
Cu781      Cu  0.73076959  0.47094181  0.15077411     0.42000
Cu782      Cu  0.71783039  0.50612722  0.20248660     0.43900
N783        N  0.65513008  0.52137476  0.18942866    -0.34900
N784        N  0.67315930  0.51957488  0.20557627    -0.29200
C785        C  0.65707422  0.52544331  0.22270396    -0.05300
C786        C  0.62759873  0.53100447  0.21688874     0.06900
C787        C  0.62761353  0.52840440  0.19561107     0.00700
H788        H  0.66568366  0.52398923  0.23832981     0.08400
H789        H  0.60877391  0.52904203  0.18519330     0.07400
N790        N  0.75947644  0.49245721  0.19107725    -0.36400
N791        N  0.76309080  0.47958326  0.17283165    -0.28600
C792        C  0.79218900  0.47545446  0.16938392    -0.03800
C793        C  0.80808685  0.48619460  0.18604337     0.04800
C794        C  0.78667085  0.49678074  0.19963039     0.02900
H795        H  0.80112950  0.46637995  0.15518082     0.08000
H796        H  0.79059805  0.50793627  0.21422978     0.06800
N797        N  0.93621286  0.05864366  0.87017632    -0.27600
N798        N  0.96360078  0.06515509  0.86428882    -0.35400
C799        C  0.98192135  0.06271868  0.88064649     0.00800
C800        C  0.96519487  0.05416965  0.89765590     0.06800
C801        C  0.93625562  0.05171192  0.89049543    -0.06300
H802        H  0.00601879  0.06372793  0.87978179     0.06500
H803        H  0.91731892  0.04271528  0.89890345     0.08700
Cu804      Cu  0.97527821  0.06704351  0.83354598     0.44200
Cu805      Cu  0.90271489  0.05290666  0.84879061     0.42000
Cu806      Cu  0.92103359  0.04086159  0.79442440     0.43900
N807        N  0.98619284  0.05267794  0.80431451    -0.34900
N808        N  0.96729543  0.04287472  0.79011678    -0.29200
C809        C  0.98312057  0.03163900  0.77423188    -0.05300
C810        C  0.01319508  0.03407548  0.77892251     0.06900
C811        C  0.01419258  0.04762760  0.79803463     0.00700
H812        H  0.97342958  0.02075546  0.76086791     0.08400
H813        H  0.53380562  0.05231197  0.80721609     0.07400
N814        N  0.87774044  0.03777703  0.80635120    -0.36400
N815        N  0.87219888  0.04253649  0.82612073    -0.28600
C816        C  0.84360574  0.03643993  0.83004108    -0.03800
C817        C  0.82998124  0.02735340  0.81204090     0.04800
C818        C  0.85219543  0.02856119  0.79714292     0.02900
H819        H  0.83377180  0.03722692  0.84528714     0.08000
H820        H  0.85042324  0.02139945  0.78122261     0.06800
N821        N  0.47419611  0.39345231  0.63780146    -0.27600
N822        N  0.47415604  0.42183748  0.64445531    -0.35400
C823        C  0.97257191  0.44095404  0.62805273     0.00800
C824        C  0.97168345  0.42384656  0.61020411     0.06800
C825        C  0.97273448  0.39380025  0.61702219    -0.06300
H826        H  0.97586158  0.46539973  0.62887092     0.07500
H827        H  0.97606539  0.37393479  0.60753168     0.08700
Cu828      Cu  0.48541131  0.43335401  0.67459577     0.44200
Cu829      Cu  0.48470395  0.35635258  0.65660875     0.42000
Cu830      Cu  0.51546979  0.37116259  0.70703966     0.43900
N831        N  0.50630659  0.43987600  0.70297901    -0.34900
N832        N  0.51795280  0.41745082  0.71430006    -0.29200
C833        C  0.53341763  0.42960100  0.73002014    -0.05300
C834        C  0.53134905  0.46114682  0.72865345     0.06900
C835        C  0.51380998  0.46681476  0.71139228     0.00700
H836        H  0.54620775  0.41641614  0.74115244     0.08400
H837        H  0.50868077  0.48889922  0.70458104     0.07400
N838        N  0.51308455  0.32747059  0.69459930    -0.36400
N839        N  0.50206082  0.32269173  0.67594290    -0.28600
C840        C  0.50698464  0.29357498  0.67077898    -0.03800
C841        C  0.52147301  0.27899276  0.68698340     0.04800
C842        C  0.52496710  0.30110489  0.70193113     0.02900
H843        H  0.50188834  0.28415624  0.65583436     0.08000
H844        H  0.53735234  0.29887900  0.71625667     0.06800
N845        N  0.58630047  0.14558448  0.63011018    -0.27600
N846        N  0.59462090  0.11840976  0.63697512    -0.35400
C847        C  0.59560187  0.09901172  0.62116637     0.00800
C848        C  0.58744239  0.11471684  0.60345016     0.06800
C849        C  0.58163566  0.14424458  0.60960695    -0.06300
H850        H  0.59820349  0.07448941  0.62285768     0.07500
H851        H  0.57150718  0.16229288  0.60036870     0.08700
Cu852      Cu  0.59294496  0.10644451  0.66758478     0.44200
Cu853      Cu  0.57377191  0.17935820  0.65019513     0.42000
Cu854      Cu  0.55260974  0.15547510  0.70293690     0.43900
N855        N  0.57607073  0.09182889  0.69531885    -0.34900
N856        N  0.56031846  0.10861346  0.70815889    -0.29200
C857        C  0.55222885  0.09072368  0.72434673    -0.05300
C858        C  0.56343570  0.06160843  0.72121930     0.06900
C859        C  0.57858854  0.06330852  0.70284745     0.00700
H860        H  0.54045952  0.09861813  0.73781422     0.08400
H861        H  0.59122070  0.04529193  0.69566924     0.07400
N862        N  0.54857543  0.20033840  0.69121036    -0.36400
N863        N  0.55611181  0.20798707  0.67205826    -0.28600
C864        C  0.54844745  0.23708811  0.66826278    -0.03800
C865        C  0.53576467  0.24880944  0.68580715     0.04800
C866        C  0.53627339  0.22502249  0.70020741     0.02900
H867        H  0.55111309  0.24861295  0.65351414     0.08000
H868        H  0.52687830  0.22512277  0.71557421     0.06800
N869        N  0.69417780  0.46149998  0.86286178    -0.27600
N870        N  0.66879365  0.45157665  0.85519763    -0.35400
C871        C  0.64929404  0.44734794  0.87067287     0.00800
C872        C  0.66325689  0.45493645  0.88899335     0.06800
C873        C  0.69172148  0.46383984  0.88347602    -0.06300
H874        H  0.62582546  0.44258334  0.86852921     0.07500
H875        H  0.70821010  0.47427690  0.89336900     0.08700
Cu876      Cu  0.66024219  0.45432854  0.82393646     0.44200
Cu877      Cu  0.72702361  0.47799070  0.84366870     0.42000
Cu878      Cu  0.71001067  0.50031911  0.79005765     0.43900
N879        N  0.64802532  0.47363218  0.79597737    -0.34900
N880        N  0.66463250  0.49179037  0.78424649    -0.29200
C881        C  0.64694859  0.50464887  0.76961860    -0.05300
C882        C  0.61796306  0.49406370  0.77245612     0.06900
C883        C  0.61982629  0.47420291  0.78910191     0.00700
H884        H  0.65454049  0.52125514  0.75831110     0.08400
H885        H  0.60146456  0.46258179  0.79661985     0.07400
N886        N  0.75257431  0.50373914  0.80349951    -0.36400
N887        N  0.75744321  0.49545203  0.82296400    -0.28600
C888        C  0.78561554  0.50160717  0.82808746    -0.03800
C889        C  0.79973659  0.51437047  0.81123190     0.04800
C890        C  0.77824693  0.51531708  0.79570080     0.02900
H891        H  0.79493311  0.49775469  0.84338011     0.08000
H892        H  0.78065073  0.52504894  0.78031717     0.06800
C893        C  0.49120795  0.04857506  0.95318984    -0.02100
C894        C  0.50855061  0.02174930  0.95257457     0.07600
C895        C  0.00861704  0.00381121  0.93457529    -0.02200
C896        C  0.99291300  0.01369089  0.91694267    -0.02200
C897        C  0.97730358  0.04156759  0.91713021     0.07700
C898        C  0.47536665  0.05832574  0.93547584    -0.02400
Br899      Br  0.45155570  0.09493602  0.93606895    -0.01000
Br900      Br  0.48883959  0.07168654  0.97829958    -0.01000
Br901      Br  0.99278424  0.98890732  0.89244884    -0.01000
Br902      Br  0.03201996  0.96678364  0.93317039    -0.01000
C903        C  0.98795816  0.01413442  0.04854453    -0.02100
C904        C  0.51924607  0.01523771  0.04783775     0.07600
C905        C  0.53571306  0.02148467  0.06587602    -0.02200
C906        C  0.52103320  0.02511736  0.08482462    -0.02200
C907        C  0.98957003  0.02380740  0.08568279     0.07700
C908        C  0.97308297  0.01873387  0.06737547    -0.02400
Br909      Br  0.93007461  0.01897142  0.06775688    -0.01000
Br910      Br  0.96557745  0.00737275  0.02348682    -0.01000
Br911      Br  0.54477256  0.02897881  0.10966008    -0.01000
Br912      Br  0.57871396  0.02364142  0.06495752    -0.01000
C913        C  0.63039896  0.98821687  0.91000119    -0.02100
C914        C  0.64834558  0.96191905  0.90861639     0.07600
C915        C  0.65220691  0.94260926  0.92597499    -0.02200
C916        C  0.63743972  0.94905243  0.94457791    -0.02200
C917        C  0.61909813  0.97508744  0.94589878     0.07700
C918        C  0.61589950  0.99488755  0.92861624    -0.02400
Br919      Br  0.59068148  0.03060750  0.92993583    -0.01000
Br920      Br  0.62596785  0.01546454  0.88644431    -0.01000
Br921      Br  0.64326542  0.92288323  0.96847794    -0.01000
Br922      Br  0.67750625  0.40717620  0.92411111    -0.01000
C923        C  0.67144140  0.97609021  0.06251239    -0.02100
C924        C  0.65737273  0.96285108  0.07989263     0.07600
C925        C  0.62970481  0.94813284  0.07757716    -0.02200
C926        C  0.61441768  0.94982560  0.05860614    -0.02200
C927        C  0.62726196  0.96573438  0.04164041     0.07700
C928        C  0.65658391  0.97703825  0.04332206    -0.02400
Br929      Br  0.67621412  0.99434226  0.01937969    -0.01000
Br930      Br  0.70965010  0.99577456  0.06529576    -0.01000
Br931      Br  0.57444323  0.93342139  0.05719796    -0.01000
Br932      Br  0.61220312  0.42656640  0.10079492    -0.01000
C933        C  0.00817096  0.43376509  0.44836272    -0.02100
C934        C  0.00406946  0.46513977  0.45154948     0.07600
C935        C  0.99991067  0.48492443  0.43438770    -0.02200
C936        C  0.00492887  0.47435295  0.41425900    -0.02200
C937        C  0.01148506  0.44310647  0.41102991     0.07700
C938        C  0.01082477  0.42258172  0.42814347    -0.02400
Br939      Br  0.01289452  0.37902708  0.42418072    -0.01000
Br940      Br  0.01016569  0.40630073  0.47189264    -0.01000
Br941      Br  0.50649692  0.50433760  0.39206585    -0.01000
Br942      Br  0.99017994  0.52749582  0.43828981    -0.01000
C943        C  0.52051181  0.45451780  0.56718899    -0.02100
C944        C  0.99952350  0.45972761  0.55108463     0.07600
C945        C  0.96941256  0.45133419  0.55423412    -0.02200
C946        C  0.96015486  0.43966392  0.57361036    -0.02200
C947        C  0.98110774  0.43486143  0.58955249     0.07700
C948        C  0.51140362  0.44131285  0.58604431    -0.02400
Br949      Br  0.54061591  0.43234175  0.60733073    -0.01000
Br950      Br  0.56147643  0.46784059  0.56474148    -0.01000
Br951      Br  0.91864527  0.43117463  0.57865636    -0.01000
Br952      Br  0.94089289  0.45469906  0.53192005    -0.01000
C953        C  0.56930992  0.05037688  0.43656539    -0.02100
C954        C  0.56098321  0.06589322  0.45464147     0.07600
C955        C  0.55750942  0.09780796  0.45401803    -0.02200
C956        C  0.55937243  0.11387680  0.43508405    -0.02200
C957        C  0.56496565  0.09797702  0.41660000     0.07700
C958        C  0.57119833  0.06633481  0.41759158    -0.02400
Br959      Br  0.58317800  0.04455524  0.39316793    -0.01000
Br960      Br  0.57663863  0.00689362  0.43733161    -0.01000
Br961      Br  0.55205047  0.15731803  0.43471701    -0.01000
Br962      Br  0.55058560  0.11946163  0.47936210    -0.01000
C963        C  0.54718622  0.09145763  0.58239979    -0.02100
C964        C  0.57722288  0.10018463  0.58438874     0.07600
C965        C  0.59802789  0.09216646  0.56924278    -0.02200
C966        C  0.58876174  0.07611414  0.55168158    -0.02200
C967        C  0.55873971  0.06669140  0.54975237     0.07700
C968        C  0.53805216  0.07411842  0.56540512    -0.02400
Br969      Br  0.99785378  0.05814431  0.56505969    -0.01000
Br970      Br  0.51883415  0.10179710  0.60364208    -0.01000
Br971      Br  0.61740009  0.06795318  0.53024410    -0.01000
Br972      Br  0.63946549  0.10253030  0.57303181    -0.01000
O973        O  0.02374976  0.55315876  0.52366273    -0.73200
O974        O  0.99308582  0.99763589  0.47990207    -0.74200
O975        O  0.99236759  0.99779864  0.52457795    -0.62800
O976        O  0.02488144  0.55251340  0.47984886    -0.71200
O977        O  0.56820593  0.52811212  0.48126608    -0.70800
O978        O  0.53423643  0.97106934  0.52407991    -0.62000
O979        O  0.53651663  0.97335062  0.47985846    -0.74500
O980        O  0.56560785  0.52645209  0.52558887    -0.73300
Cu981      Cu  0.00698147  0.52604976  0.50200641     1.04600
Cu982      Cu  0.55257994  0.99877415  0.50278499     1.04300
C983        C  0.54908138  0.54807734  0.53202063     0.93000
C984        C  0.01092343  0.97848932  0.47184215     0.92100
C985        C  0.00881750  0.97649548  0.53204168     0.84300
C986        C  0.55127464  0.54838356  0.47308519     0.90500
C987        C  0.58931501  0.00311041  0.76163631     0.86200
C988        C  0.59201018  0.52848090  0.74522176    -0.54000
C989        C  0.56551902  0.53627248  0.73620522     0.09100
C990        C  0.53877911  0.01732480  0.74380183     0.20100
C991        C  0.56542316  0.01471945  0.77658389    -0.54700
C992        C  0.53886575  0.52202980  0.76730280     0.09300
C993        C  0.57453879  0.97642306  0.75049152    -0.54300
C994        C  0.54818267  0.98367924  0.74098877     0.09800
H995        H  0.61264223  0.54013574  0.74144412     0.14300
H996        H  0.51744324  0.52357632  0.73610454     0.00100
H997        H  0.56926145  0.01674250  0.79308709     0.14600
H998        H  0.58451724  0.95386637  0.74986945     0.14400
C999        C  0.60047249  0.03342204  0.23071548     0.86200
C1000       C  0.57082439  0.03785328  0.21910602    -0.54000
C1001       C  0.54624893  0.53898993  0.23144432     0.09100
C1002       C  0.55367802  0.03546577  0.25463733     0.20100
C1003       C  0.60124017  0.55978751  0.24605008    -0.54700
C1004       C  0.57671371  0.56109586  0.25855854     0.09300
C1005       C  0.59590135  0.00457575  0.24388297    -0.54300
C1006       C  0.57151967  0.00528219  0.25642357     0.09800
H1007       H  0.56910791  0.04012139  0.20249140     0.14300
H1008       H  0.53373976  0.53647549  0.26470773     0.00100
H1009       H  0.61934571  0.57617662  0.24672287     0.14600
H1010       H  0.61094423  0.98520432  0.24323551     0.14400
N1011       N  0.54947417  0.91175396  0.36603162    -0.27600
N1012       N  0.52899549  0.92861936  0.35666049    -0.35400
C1013       C  0.01114573  0.94087255  0.37096523     0.00800
C1014       C  0.02150759  0.93231367  0.39043444     0.06800
C1015       C  0.04589962  0.91377723  0.38657274    -0.06300
H1016       H  0.99244296  0.95559213  0.36731900     0.07500
H1017       H  0.06031876  0.90284677  0.39786541     0.08700
Cu1018     Cu  0.53020834  0.93883240  0.32530832     0.44200
Cu1019     Cu  0.57830009  0.88355548  0.35025154     0.42000
Cu1020     Cu  0.57697671  0.88930679  0.29501021     0.43900
N1021       N  0.54701891  0.95137703  0.29660975    -0.34900
N1022       N  0.56484298  0.93360619  0.28583918    -0.29200
C1023       C  0.57533658  0.94969715  0.26958923    -0.05300
C1024       C  0.56364170  0.97905079  0.27012909     0.06900
C1025       C  0.54563040  0.97916682  0.28744300     0.00700
H1026       H  0.59117849  0.94088629  0.25861324     0.08400
H1027       H  0.53387519  0.99853282  0.29368178     0.07400
N1028       N  0.58747197  0.84875238  0.31084077    -0.36400
N1029       N  0.58939002  0.84767622  0.33122682    -0.28600
C1030       C  0.59386211  0.81868876  0.33745896    -0.03800
C1031       C  0.59464612  0.80030021  0.32025116     0.04800
C1032       C  0.59064631  0.82016095  0.30355829     0.02900
H1033       H  0.59436961  0.81133273  0.35345482     0.08000
H1034       H  0.58863193  0.81409583  0.28745613     0.06800
O1035       O  0.54746955  0.53216871  0.97660748    -0.73200
O1036       O  0.60881164  0.50278974  0.01753296    -0.74200
O1037       O  0.60487778  0.50722335  0.97347849    -0.62800
O1038       O  0.55208524  0.52875741  0.02060066    -0.71200
O1039       O  0.53317258  0.48189218  0.02079912    -0.70800
O1040       O  0.58461257  0.46105896  0.97228945    -0.62000
O1041       O  0.59010305  0.45605088  0.01607235    -0.74500
O1042       O  0.52737462  0.48586705  0.97706298    -0.73300
Cu1043     Cu  0.57902429  0.51936601  0.99706247     1.04600
Cu1044     Cu  0.55812774  0.46961086  0.99652541     1.04300
C1045       C  0.52826264  0.51311666  0.96993188     0.93000
C1046       C  0.60837576  0.47500254  0.02384961     0.92100
C1047       C  0.60236563  0.48124930  0.96496680     0.84300
C1048       C  0.53517730  0.50846449  0.02860927     0.90500
N1049       N  0.94915087  0.51346206  0.13398635    -0.27600
N1050       N  0.96353012  0.53898041  0.13793737    -0.35400
C1051       C  0.97876613  0.54771791  0.12102980     0.00800
C1052       C  0.97408555  0.52629273  0.10577777     0.06800
C1053       C  0.95504184  0.50496424  0.11455483    -0.06300
H1054       H  0.99357952  0.56716838  0.12033284     0.07500
H1055       H  0.94701510  0.48416617  0.10762654     0.08700
Cu1056     Cu  0.96704671  0.55534577  0.16768270     0.44200
Cu1057     Cu  0.92233192  0.49263219  0.15572518     0.42000
Cu1058     Cu  0.92619558  0.51807850  0.20903420     0.43900
N1059       N  0.98232810  0.55159786  0.19781641    -0.34900
N1060       N  0.96902521  0.53631434  0.21293746    -0.29200
C1061       C  0.98901858  0.53154872  0.22837667    -0.05300
C1062       C  0.01612966  0.54419359  0.22242209     0.06900
C1063       C  0.01067679  0.55698891  0.20312319     0.00700
H1064       H  0.98499217  0.51742741  0.24191017     0.08400
H1065       H  0.52687996  0.56693826  0.19272138     0.07400
N1066       N  0.88748252  0.50056827  0.19533442    -0.36400
N1067       N  0.88755768  0.48971965  0.17634973    -0.28600
C1068       C  0.85980442  0.48199790  0.17092651    -0.03800
C1069       C  0.84088201  0.48842103  0.18704669     0.04800
C1070       C  0.85914764  0.50015250  0.20239546     0.02900
H1071       H  0.85364464  0.47425231  0.15566161     0.08000
H1072       H  0.85219324  0.50896451  0.21719854     0.06800
N1073       N  0.57326031  0.64617675  0.37043249    -0.27600
N1074       N  0.55559844  0.62471286  0.36318362    -0.35400
C1075       C  0.54902764  0.60499558  0.37858307     0.00800
C1076       C  0.56384109  0.61412626  0.39630020     0.06800
C1077       C  0.57897587  0.64036606  0.39049080    -0.06300
H1078       H  0.53558031  0.58468130  0.37676240     0.07500
H1079       H  0.59377269  0.65381464  0.39995122     0.08700
Cu1080     Cu  0.54763828  0.61955824  0.33188946     0.44200
Cu1081     Cu  0.58851341  0.68226559  0.35261156     0.42000
Cu1082     Cu  0.58428825  0.67558207  0.29778913     0.43900
N1083       N  0.55924860  0.61114538  0.30153444    -0.34900
N1084       N  0.57442435  0.63038981  0.28964116    -0.29200
C1085       C  0.58276828  0.61565245  0.27243929    -0.05300
C1086       C  0.57207308  0.58594256  0.27352035     0.06900
C1087       C  0.55712633  0.58402623  0.29209832     0.00700
H1088       H  0.59590316  0.62573269  0.26013486     0.08400
H1089       H  0.54693595  0.56387412  0.29884420     0.07400
N1090       N  0.59136333  0.71751739  0.31238298    -0.36400
N1091       N  0.59362913  0.71907496  0.33270941    -0.28600
C1092       C  0.59619055  0.74835787  0.33824738    -0.03800
C1093       C  0.59542949  0.76652037  0.32062554     0.04800
C1094       C  0.59240522  0.74620097  0.30441638     0.02900
H1095       H  0.59709215  0.75587071  0.35405255     0.08000
H1096       H  0.58996325  0.75191182  0.28816969     0.06800
N1097       N  0.69727613  0.97178785  0.12876389    -0.27600
N1098       N  0.67237826  0.98671393  0.13238552    -0.35400
C1099       C  0.65449430  0.98512318  0.11581317     0.00800
C1100       C  0.66889411  0.96840437  0.10090219     0.06800
C1101       C  0.69610540  0.96027339  0.10956717    -0.06300
H1102       H  0.63274557  0.99577611  0.11456594     0.07500
H1103       H  0.71378070  0.94745518  0.10239453     0.08700
Cu1104     Cu  0.66483365  0.00815922  0.15989546     0.44200
Cu1105     Cu  0.73076932  0.97094201  0.15077396     0.42000
Cu1106     Cu  0.71783018  0.00612745  0.20248647     0.43900
N1107       N  0.65512988  0.02137489  0.18942847    -0.34900
N1108       N  0.67315911  0.01957513  0.20557608    -0.29200
C1109       C  0.65707405  0.02544363  0.22270375    -0.05300
C1110       C  0.62759854  0.03100469  0.21688854     0.06900
C1111       C  0.62761340  0.02840451  0.19561090     0.00700
H1112       H  0.66568351  0.02398959  0.23832963     0.08400
H1113       H  0.60877348  0.02904203  0.18519299     0.07400
N1114       N  0.75947619  0.99245745  0.19107711    -0.36400
N1115       N  0.76309054  0.97958354  0.17283149    -0.28600
C1116       C  0.79218874  0.97545476  0.16938377    -0.03800
C1117       C  0.80808659  0.98619485  0.18604323     0.04800
C1118       C  0.78667058  0.99678095  0.19963025     0.02900
H1119       H  0.80112925  0.96638025  0.15518065     0.08000
H1120       H  0.79059778  0.00793647  0.21422971     0.06800
N1121       N  0.93621275  0.55864319  0.87017633    -0.27600
N1122       N  0.96360062  0.56515481  0.86428884    -0.35400
C1123       C  0.98192122  0.56271841  0.88064651     0.00800
C1124       C  0.96519478  0.55416919  0.89765590     0.06800
C1125       C  0.93625554  0.55171133  0.89049543    -0.06300
H1126       H  0.00601865  0.56372782  0.87978181     0.06500
H1127       H  0.91731890  0.54271455  0.89890342     0.08700
Cu1128     Cu  0.97527797  0.56704352  0.83354600     0.44200
Cu1129     Cu  0.90271482  0.55290614  0.84879061     0.42000
Cu1130     Cu  0.92103341  0.54086161  0.79442432     0.43900
N1131       N  0.98619263  0.55267806  0.80431450    -0.34900
N1132       N  0.96729526  0.54287484  0.79011675    -0.29200
C1133       C  0.98312046  0.53163913  0.77423187    -0.05300
C1134       C  0.01319496  0.53407562  0.77892254     0.06900
C1135       C  0.01419242  0.54762775  0.79803467     0.00700
H1136       H  0.97342954  0.52075561  0.76086792     0.08400
H1137       H  0.53380571  0.55231178  0.80721639     0.07400
N1138       N  0.87774028  0.53777687  0.80635116    -0.36400
N1139       N  0.87219879  0.54253613  0.82612072    -0.28600
C1140       C  0.84360567  0.53643956  0.83004108    -0.03800
C1141       C  0.82998110  0.52735322  0.81204090     0.04800
C1142       C  0.85219524  0.52856114  0.79714288     0.02900
H1143       H  0.83377175  0.53722646  0.84528723     0.08000
H1144       H  0.85042297  0.52139960  0.78122255     0.06800
N1145       N  0.47419654  0.89345234  0.63780115    -0.27600
N1146       N  0.47415664  0.92183755  0.64445493    -0.35400
C1147       C  0.97257157  0.94095388  0.62805284     0.00800
C1148       C  0.97168316  0.92384643  0.61020421     0.06800
C1149       C  0.97273429  0.89380010  0.61702225    -0.06300
H1150       H  0.97586118  0.96539956  0.62887104     0.07500
H1151       H  0.97606529  0.87393471  0.60753175     0.08700
Cu1152     Cu  0.48541192  0.93335425  0.67459536     0.44200
Cu1153     Cu  0.48470393  0.85635262  0.65660859     0.42000
Cu1154     Cu  0.51546973  0.87116290  0.70703950     0.43900
N1155       N  0.50630708  0.93987632  0.70297864    -0.34900
N1156       N  0.51795308  0.91745112  0.71429978    -0.29200
C1157       C  0.53341786  0.92960125  0.73001992    -0.05300
C1158       C  0.53134941  0.96114709  0.72865316     0.06900
C1159       C  0.51381054  0.96681507  0.71139190     0.00700
H1160       H  0.54620767  0.91641648  0.74115222     0.08400
H1161       H  0.50868147  0.98889956  0.70458061     0.07400
N1162       N  0.51308400  0.82747079  0.69459939    -0.36400
N1163       N  0.50206025  0.82269179  0.67594302    -0.28600
C1164       C  0.50698379  0.79357491  0.67077927    -0.03800
C1165       C  0.52147199  0.77899276  0.68698381     0.04800
C1166       C  0.52496628  0.80110507  0.70193139     0.02900
H1167       H  0.50188753  0.78415607  0.65583472     0.08000
H1168       H  0.53735158  0.79887927  0.71625694     0.06800
N1169       N  0.58630094  0.64558497  0.63011099    -0.27600
N1170       N  0.59462174  0.61841041  0.63697599    -0.35400
C1171       C  0.59560280  0.59901224  0.62116729     0.00800
C1172       C  0.58744298  0.61471714  0.60345107     0.06800
C1173       C  0.58163597  0.64424488  0.60960778    -0.06300
H1174       H  0.59820464  0.57449003  0.62285868     0.07500
H1175       H  0.57150718  0.66229289  0.60036955     0.08700
Cu1176     Cu  0.59294586  0.60644538  0.66758568     0.44200
Cu1177     Cu  0.57377185  0.67935854  0.65019588     0.42000
Cu1178     Cu  0.55260875  0.65547507  0.70293741     0.43900
N1179       N  0.57607100  0.59182931  0.69531946    -0.34900
N1180       N  0.56031797  0.60861347  0.70815931    -0.29200
C1181       C  0.55222805  0.59072335  0.72434690    -0.05300
C1182       C  0.56343549  0.56160832  0.72121952     0.06900
C1183       C  0.57858900  0.56330890  0.70284795     0.00700
H1184       H  0.54045805  0.59861748  0.73781429     0.08400
H1185       H  0.59122170  0.54529264  0.69566987     0.07400
N1186       N  0.54857445  0.70033841  0.69121091    -0.36400
N1187       N  0.55611121  0.70798719  0.67205890    -0.28600
C1188       C  0.54844686  0.73708823  0.66826340    -0.03800
C1189       C  0.53576368  0.74880945  0.68580766     0.04800
C1190       C  0.53627215  0.72502244  0.70020787     0.02900
H1191       H  0.55111280  0.74861314  0.65351480     0.08000
H1192       H  0.52687674  0.72512265  0.71557464     0.06800
N1193       N  0.69417804  0.96149947  0.86286164    -0.27600
N1194       N  0.66879388  0.95157624  0.85519743    -0.35400
C1195       C  0.64929424  0.94734748  0.87067263     0.00800
C1196       C  0.66325702  0.95493584  0.88899315     0.06800
C1197       C  0.69172168  0.96383921  0.88347590    -0.06300
H1198       H  0.62582557  0.94258296  0.86852891     0.07500
H1199       H  0.70821016  0.97427613  0.89336887     0.08700
Cu1200     Cu  0.66024241  0.95432844  0.82393627     0.44200
Cu1201     Cu  0.72702393  0.97799031  0.84366866     0.42000
Cu1202     Cu  0.71001085  0.00031925  0.79005769     0.43900
N1203       N  0.64802549  0.97363231  0.79597725    -0.34900
N1204       N  0.66463268  0.99179059  0.78424644    -0.29200
C1205       C  0.64694877  0.00464914  0.76961859    -0.05300
C1206       C  0.61796326  0.99406395  0.77245603     0.06900
C1207       C  0.61982647  0.97420306  0.78910177     0.00700
H1208       H  0.65454072  0.02125558  0.75831107     0.08400
H1209       H  0.60146473  0.96258184  0.79661965     0.07400
N1210       N  0.75257452  0.00373914  0.80349953    -0.36400
N1211       N  0.75744348  0.99545186  0.82296399    -0.28600
C1212       C  0.78561582  0.00160703  0.82808743    -0.03800
C1213       C  0.79973680  0.01437050  0.81123190     0.04800
C1214       C  0.77824709  0.01531719  0.79570084     0.02900
H1215       H  0.79493345  0.99775446  0.84338007     0.08000
H1216       H  0.78065082  0.02504926  0.78031720     0.06800
C1217       C  0.49120787  0.54857517  0.95319012    -0.02100
C1218       C  0.50855052  0.52174940  0.95257488     0.07600
C1219       C  0.00861699  0.50381075  0.93457528    -0.02200
C1220       C  0.99291298  0.51369046  0.91694265    -0.02200
C1221       C  0.97730355  0.54156715  0.91713020     0.07700
C1222       C  0.47536655  0.55832578  0.93547612    -0.02400
Br1223     Br  0.45155561  0.59493607  0.93606917    -0.01000
Br1224     Br  0.48883957  0.57168677  0.97829981    -0.01000
Br1225     Br  0.99278434  0.48890697  0.89244878    -0.01000
Br1226     Br  0.03201981  0.46678311  0.93317042    -0.01000
C1227       C  0.98795822  0.51413439  0.04854451    -0.02100
C1228       C  0.51924599  0.51523784  0.04783803     0.07600
C1229       C  0.53571296  0.52148490  0.06587630    -0.02200
C1230       C  0.52103308  0.52511761  0.08482490    -0.02200
C1231       C  0.98957009  0.52380732  0.08568278     0.07700
C1232       C  0.97308303  0.51873381  0.06737545    -0.02400
Br1233     Br  0.93007467  0.51897130  0.06775689    -0.01000
Br1234     Br  0.96557750  0.50737278  0.02348680    -0.01000
Br1235     Br  0.54477243  0.52897920  0.10966034    -0.01000
Br1236     Br  0.57871386  0.52364172  0.06495781    -0.01000
C1237       C  0.63039882  0.48821741  0.91000143    -0.02100
C1238       C  0.64834552  0.46191965  0.90861661     0.07600
C1239       C  0.65220700  0.44260992  0.92597522    -0.02200
C1240       C  0.63743984  0.44905304  0.94457815    -0.02200
C1241       C  0.61909814  0.47508796  0.94589903     0.07700
C1242       C  0.61589938  0.49488805  0.92861649    -0.02400
Br1243     Br  0.59068122  0.53060789  0.92993610    -0.01000
Br1244     Br  0.62596759  0.51546507  0.88644455    -0.01000
Br1245     Br  0.64326573  0.42288391  0.96847820    -0.01000
Br1246     Br  0.67750597  0.90717541  0.92411089    -0.01000
C1247       C  0.67144165  0.47609062  0.06251251    -0.02100
C1248       C  0.65737307  0.46285141  0.07989275     0.07600
C1249       C  0.62970515  0.44813315  0.07757733    -0.02200
C1250       C  0.61441793  0.44982597  0.05860634    -0.02200
C1251       C  0.62726212  0.46573481  0.04164061     0.07700
C1252       C  0.65658407  0.47703871  0.04332221    -0.02400
Br1253     Br  0.67621415  0.49434287  0.01937984    -0.01000
Br1254     Br  0.70965035  0.49577498  0.06529584    -0.01000
Br1255     Br  0.57444347  0.43342178  0.05719825    -0.01000
Br1256     Br  0.61220266  0.92656616  0.10079473    -0.01000
C1257       C  0.00817093  0.93376541  0.44836297    -0.02100
C1258       C  0.00406943  0.96514009  0.45154972     0.07600
C1259       C  0.99991075  0.98492476  0.43438793    -0.02200
C1260       C  0.00492909  0.97435329  0.41425925    -0.02200
C1261       C  0.01148522  0.94310680  0.41103017     0.07700
C1262       C  0.01082482  0.92258204  0.42814372    -0.02400
Br1263     Br  0.01289455  0.87902740  0.42418098    -0.01000
Br1264     Br  0.01016554  0.90630104  0.47189289    -0.01000
Br1265     Br  0.50649515  0.00433625  0.39206499    -0.01000
Br1266     Br  0.99017997  0.02749614  0.43829004    -0.01000
C1267       C  0.52051221  0.95451776  0.56718850    -0.02100
C1268       C  0.99952331  0.95972764  0.55108480     0.07600
C1269       C  0.96941229  0.95133453  0.55423433    -0.02200
C1270       C  0.96015456  0.93966422  0.57361054    -0.02200
C1271       C  0.98110746  0.93486135  0.58955261     0.07700
C1272       C  0.51140411  0.94131295  0.58604388    -0.02400
Br1273     Br  0.54061645  0.93234246  0.60733039    -0.01000
Br1274     Br  0.56147669  0.96784096  0.56474093    -0.01000
Br1275     Br  0.91864489  0.93117538  0.57865662    -0.01000
Br1276     Br  0.94089254  0.95469984  0.53192033    -0.01000
C1277       C  0.56930970  0.55037733  0.43656611    -0.02100
C1278       C  0.56098330  0.56589388  0.45464217     0.07600
C1279       C  0.55750995  0.59780867  0.45401864    -0.02200
C1280       C  0.55937315  0.61387739  0.43508460    -0.02200
C1281       C  0.56496595  0.59797740  0.41660056     0.07700
C1282       C  0.57119812  0.56633508  0.41759223    -0.02400
Br1283     Br  0.58317725  0.54455514  0.39316860    -0.01000
Br1284     Br  0.57663827  0.50689405  0.43733250    -0.01000
Br1285     Br  0.55205222  0.65731879  0.43471751    -0.01000
Br1286     Br  0.55058666  0.61946260  0.47936266    -0.01000
C1287       C  0.54718670  0.59145754  0.58240097    -0.02100
C1288       C  0.57722334  0.60018470  0.58438975     0.07600
C1289       C  0.59802820  0.59216671  0.56924366    -0.02200
C1290       C  0.58876190  0.57611450  0.55168245    -0.02200
C1291       C  0.55873987  0.56669171  0.54975336     0.07700
C1292       C  0.53805250  0.57411844  0.56540627    -0.02400
Br1293     Br  0.99785343  0.55814461  0.56505914    -0.01000
Br1294     Br  0.51883486  0.60179666  0.60364349    -0.01000
Br1295     Br  0.61740002  0.56795380  0.53024477    -0.01000
Br1296     Br  0.63946582  0.60253067  0.57303248    -0.01000
loop_ 
_geom_bond_atom_site_label_1 
_geom_bond_atom_site_label_2 
_geom_bond_distance 
_geom_bond_site_symmetry_2 
_ccdc_geom_bond_type 
O1           Cu9   1.995       .  S
O1          C659   1.276       .  A
O2         Cu333   2.007       .  S
O2           C12   1.277       .  A
O3         Cu333   2.014       .  S
O3           C13   1.278       .  A
O4           Cu9   2.002       .  S
O4          C662   1.278       .  A
O5         Cu334   2.011   1_545  S
O5           C14   1.277       .  A
O6          Cu10   2.003       .  S
O6          C661   1.277       .  A
O7          Cu10   2.000       .  S
O7          C660   1.277       .  A
O8         Cu334   2.008   1_545  S
O8           C11   1.278       .  A
Cu9         O326   2.007   1_545  S
Cu9         O327   2.014   1_545  S
Cu9        Cu982   2.369   1_545  S
Cu10        O329   2.011       .  S
Cu10        O332   2.008       .  S
Cu10       Cu981   2.369       .  S
C11         O649   1.276       .  A
C11         C319   1.480       .  S
C12         O655   1.277       .  A
C12         C286   1.476       .  S
C13         O654   1.277       .  A
C13         C296   1.487       .  S
C14         O652   1.278       .  A
C14         C306   1.477       .  S
C15          C21   1.532       .  S
C15          C19   1.537       .  S
C15         C340   1.532       .  S
C15         C234   1.512       .  S
C16         C339   1.532       .  S
C16          H23   1.085       .  S
C16          C17   1.364       .  D
C17         C342   1.538       .  S
C17         C210   1.467       .  S
C18          C22   1.546       .  S
C18         C341   1.538       .  S
C18         C344   1.537       .  S
C18         H348   1.110       .  S
C19          H25   1.086       .  S
C19         C344   1.369       .  D
C20         C342   1.537       .  S
C20         C343   1.369       .  D
C20         C810   1.479       .  S
C21          H26   1.086       .  S
C21          C22   1.367       .  D
C22         C186   1.483       .  S
H24         C342   1.110       .  S
C27          C28   1.537       .  S
C27          C33   1.529       .  S
C27         C355   1.533       .  S
C27         C138   1.518       .  S
C28          H35   1.081       .  S
C28         C353   1.365       .  D
C29         C354   1.542       .  S
C29         C352   1.365       .  D
C29         C738   1.487       .  S
C30          C34   1.548       .  S
C30         C353   1.542       .  S
C30         C356   1.550       .  S
C30         H360   1.110       .  S
C31         C351   1.533       .  S
C31          H37   1.086       .  S
C31          C32   1.370       .  D
C32         C354   1.550       .  S
C32         C114   1.481       .  S
C33          H38   1.085       .  S
C33          C34   1.365       .  D
C34          C52   1.486       .  S
H36         C354   1.110       .  S
N39          N40   1.320       .  A
N39         Cu47   2.070       .  S
N39         C691   1.343       .  A
N40         Cu46   2.072       .  S
N40         C689   1.343       .  A
C41         N688   1.343       .  A
C41          C42   1.388       .  A
C41          H44   1.082       .  S
C42         C289   1.491       .  S
C42          C43   1.388       .  A
C43         N687   1.343       .  A
C43          H45   1.081       .  S
Cu46         N49   2.074       .  S
Cu47         N57   2.071       .  S
Cu48         N50   2.093       .  S
Cu48         N56   2.092       .  S
N49          N50   1.323       .  A
N49          C53   1.349       .  A
N50          C51   1.345       .  A
C51          C52   1.390       .  A
C51          H54   1.081       .  S
C52          C53   1.384       .  A
C53          H55   1.082       .  S
N56          N57   1.322       .  A
N56          C60   1.352       .  A
N57          C58   1.342       .  A
C58          C59   1.384       .  A
C58          H61   1.080       .  S
C59         C121   1.480       .  S
C59          C60   1.389       .  A
C60          H62   1.082       .  S
O63         Cu71   2.010       .  S
O63          C73   1.278       .  A
O64         Cu71   2.008   1_554  S
O64          C74   1.279   1_545  A
O65         Cu71   1.998       .  S
O65          C75   1.276   1_545  A
O66         Cu71   1.995   1_554  S
O66          C76   1.275       .  A
O67         Cu72   2.011   1_554  S
O67          C76   1.278   1_565  A
O68         Cu72   2.010       .  S
O68          C75   1.278       .  A
O69         Cu72   1.995   1_554  S
O69          C74   1.275       .  A
O70         Cu72   1.990       .  S
O70          C73   1.275   1_565  A
Cu71        Cu72   2.374   1_545  S
C73         C246   1.473       .  S
C74         C279   1.480       .  S
C75         C269   1.474       .  S
C76         C256   1.471       .  S
N77          N78   1.319       .  A
N77         Cu85   2.059   1_545  S
N77          C81   1.343       .  A
N78         Cu84   2.068       .  S
N78          C79   1.344       .  A
C79          C80   1.387       .  A
C79          H82   1.082       .  S
C80         C259   1.482       .  S
C80          C81   1.384       .  A
C81          H83   1.082   1_545  S
Cu84         N87   2.069       .  S
Cu85         N95   2.060       .  S
Cu86         N88   2.098       .  S
Cu86         N94   2.098       .  S
N87          N88   1.323       .  A
N87          C91   1.339       .  A
N88          C89   1.355       .  A
C89          C90   1.391       .  A
C89          H92   1.081       .  S
C90         C677   1.487       .  S
C90          C91   1.383       .  A
C91         H741   1.081       .  S
H93         C739   1.081       .  S
N94          N95   1.323   1_545  A
N94          C98   1.353       .  A
N95          C96   1.338       .  A
C96          C97   1.379       .  A
C96          H99   1.084       .  S
C97         C469   1.476       .  S
C97          C98   1.390   1_565  A
C98         H100   1.084       .  S
N101        N102   1.320       .  A
N101       Cu109   2.063       .  S
N101        C105   1.343       .  A
N102       Cu108   2.070       .  S
N102        C103   1.344       .  A
C103        C104   1.387       .  A
C103        H106   1.083       .  S
C104        C309   1.484       .  S
C104        C105   1.384       .  A
C105        H107   1.082       .  S
Cu108       N111   2.071       .  S
Cu109       N119   2.064       .  S
Cu110       N112   2.103       .  S
Cu110       N118   2.101       .  S
N111        N112   1.324       .  A
N111        C115   1.346       .  A
N112        C113   1.348       .  A
C113        C114   1.389       .  A
C113        H116   1.082       .  S
C114        C115   1.380       .  A
C115        H117   1.082       .  S
N118        N119   1.321       .  A
N118        C122   1.353       .  A
N119        C120   1.342       .  A
C120        C121   1.382       .  A
C120        H123   1.079       .  S
C121        C122   1.391       .  A
C122        H124   1.083       .  S
N125        N126   1.318       .  A
N125       Cu133   2.067       .  S
N125        C129   1.348       .  A
N126       Cu132   2.053       .  S
N126        C127   1.340       .  A
C127        C128   1.381       .  A
C127        H130   1.084       .  S
C128        C600   1.476       .  S
C128        C129   1.386       .  A
C129        H131   1.081       .  S
Cu132       N135   2.052       .  S
Cu133       N143   2.070       .  S
Cu134       N136   2.100       .  S
Cu134       N142   2.102       .  S
N135        N136   1.321       .  A
N135        C139   1.336       .  A
N136        C137   1.352       .  A
C137        C138   1.395       .  A
C137        H140   1.082       .  S
C138        C139   1.383       .  A
C139        H141   1.080       .  S
N142        N143   1.326       .  A
N142        C146   1.353       .  A
N143        C144   1.338       .  A
C144        C145   1.379       .  A
C144        H147   1.084       .  S
C145        C421   1.476       .  S
C145        C146   1.388       .  A
C146        H148   1.083       .  S
N149        N150   1.318       .  A
N149       Cu157   2.058       .  S
N149        C153   1.345       .  A
N150       Cu156   2.059       .  S
N150        C151   1.341       .  A
C151        C152   1.382       .  A
C151        H154   1.084       .  S
C152        C249   1.471       .  S
C152        C153   1.382       .  A
C153        H155   1.082       .  S
Cu156       N159   2.062       .  S
Cu157       N167   2.059       .  S
Cu158       N160   2.098       .  S
Cu158       N166   2.097       .  S
N159        N160   1.324       .  A
N159        C163   1.341       .  A
N160        C161   1.349       .  A
C161        C162   1.387       .  A
C161        H164   1.083       .  S
C162        C668   1.479       .  S
C162        C163   1.380       .  A
C163        H813   1.082       .  S
H165        C811   1.082       .  S
N166        N167   1.323       .  A
N166        C170   1.355       .  A
N167        C168   1.335       .  A
C168        C169   1.377       .  A
C168        H171   1.083       .  S
C169        C565   1.473       .  S
C169        C170   1.390       .  A
C170        H172   1.084       .  S
N173        N174   1.321       .  A
N173       Cu181   2.071       .  S
N173        C825   1.346       .  A
N174       Cu180   2.082       .  S
N174        C823   1.345       .  A
C175        N822   1.345       .  A
C175        C176   1.386       .  A
C175        H178   1.083       .  S
C176        C299   1.478       .  S
C176        C177   1.384       .  A
C177        N821   1.346       .  A
C177        H179   1.082       .  S
Cu180       N183   2.083   1_655  S
Cu181       N191   2.071   1_655  S
Cu182       N184   2.091       .  S
Cu182       N190   2.089       .  S
N183        N184   1.324       .  A
N183        C187   1.349       .  A
N184        C185   1.345       .  A
C185        C186   1.387       .  A
C185        H188   1.081       .  S
C186        C187   1.384       .  A
C187        H189   1.082       .  S
N190        N191   1.322       .  A
N190        C194   1.352       .  A
N191        C192   1.341       .  A
C192        C193   1.381       .  A
C192        H195   1.080       .  S
C193        C217   1.472       .  S
C193        C194   1.387       .  A
C194        H196   1.083       .  S
N197        N198   1.319       .  A
N197       Cu205   2.061       .  S
N197        C201   1.344       .  A
N198       Cu204   2.044       .  S
N198        C199   1.339       .  A
C199        C200   1.378       .  A
C199        H202   1.085       .  S
C200        C316   1.468       .  S
C200        C201   1.384       .  A
C201        H203   1.084       .  S
Cu204       N207   2.045       .  S
Cu205       N215   2.063       .  S
Cu206       N208   2.105       .  S
Cu206       N214   2.105       .  S
N207        N208   1.323       .  A
N207        C211   1.340       .  A
N208        C209   1.351       .  A
C209        C210   1.388       .  A
C209        H212   1.081       .  S
C210        C211   1.373       .  A
C211        H213   1.082       .  S
N214        N215   1.324       .  A
N214        C218   1.353       .  A
N215        C216   1.340       .  A
C216        C217   1.377       .  A
C216        H219   1.081       .  S
C217        C218   1.389       .  A
C218        H220   1.081       .  S
N221        N222   1.317       .  A
N221       Cu229   2.056       .  S
N221        C225   1.344       .  A
N222       Cu228   2.060       .  S
N222        C223   1.343       .  A
C223        C224   1.384       .  A
C223        H226   1.083       .  S
C224        C590   1.473       .  S
C224        C225   1.383       .  A
C225        H227   1.082       .  S
Cu228       N231   2.059       .  S
Cu229       N239   2.057       .  S
Cu230       N232   2.104       .  S
Cu230       N238   2.103       .  S
N231        N232   1.324       .  A
N231        C235   1.340       .  A
N232        C233   1.350       .  A
C233        C234   1.393       .  A
C233        H236   1.081       .  S
C234        C235   1.378       .  A
C235        H237   1.082       .  S
N238        N239   1.324       .  A
N238        C242   1.355       .  A
N239        C240   1.335       .  A
C240        C241   1.376       .  A
C240        H243   1.084       .  S
C241        C493   1.473       .  S
C241        C242   1.391       .  A
C242        H244   1.083       .  S
C245        C246   1.410   1_655  A
C245        C250   1.408       .  A
C245       Br252   1.929       .  S
C246        C895   1.414       .  A
C247        C248   1.402       .  A
C247        C894   1.414       .  A
C247       Br254   1.935   1_545  S
C248        C249   1.408       .  A
C248       Br253   1.933   1_545  S
C249        C898   1.407       .  A
C250        C897   1.407       .  A
C250       Br251   1.928       .  S
C255        C260   1.408       .  A
C255        C904   1.406       .  A
C255       Br262   1.931       .  S
C256        C257   1.409       .  A
C256        C903   1.406   1_455  A
C257        C258   1.405       .  A
C257       Br264   1.933       .  S
C258        C907   1.415   1_455  A
C258       Br263   1.934       .  S
C259        C260   1.415       .  A
C259        C906   1.415       .  A
C260       Br261   1.931       .  S
C265        C266   1.409       .  A
C265        C270   1.405       .  A
C265       Br272   1.933   1_565  S
C266        C548   1.473       .  S
C266        C267   1.407       .  A
C267        C268   1.408       .  A
C267       Br598   1.928       .  S
C268        C269   1.410       .  A
C268       Br273   1.930       .  S
C269        C270   1.413       .  A
C270       Br271   1.934   1_565  S
Br274       C591   1.928       .  S
C275        C276   1.410       .  A
C275        C280   1.408       .  A
C275       Br282   1.929       .  S
C276        C452   1.476       .  S
C276        C277   1.408       .  A
C277        C278   1.405       .  A
C277       Br608   1.933       .  S
C278        C279   1.417       .  A
C278       Br283   1.935       .  S
C279        C280   1.411       .  A
C280       Br281   1.931       .  S
Br284       C601   1.933       .  S
C285        C286   1.405       .  A
C285        C290   1.409       .  A
C285       Br292   1.930       .  S
C286        C287   1.411       .  A
C287        C288   1.407       .  A
C287       Br294   1.935       .  S
C288        C289   1.418       .  A
C288       Br941   1.935       .  S
C289        C290   1.418       .  A
C290       Br291   1.931       .  S
Br293       C936   1.935       .  S
C295        C300   1.405       .  A
C295        C944   1.418   1_455  A
C295       Br302   1.936       .  S
C296        C297   1.415       .  A
C296        C943   1.418       .  A
C297        C298   1.412       .  A
C297       Br304   1.930       .  S
C298        C299   1.407       .  A
C298       Br303   1.928       .  S
C299        C948   1.408       .  A
C300        C947   1.408   1_455  A
C300       Br301   1.935       .  S
C305        C306   1.412       .  A
C305        C310   1.408       .  A
C305       Br312   1.933       .  S
C306        C307   1.407       .  A
C307        C308   1.408       .  A
C307       Br314   1.931       .  S
C308        C309   1.415       .  A
C308       Br313   1.931       .  S
C309        C310   1.415       .  A
C310       Br311   1.934       .  S
C315        C316   1.407       .  A
C315        C320   1.405       .  A
C315       Br322   1.934       .  S
C316        C317   1.404       .  A
C317        C318   1.406       .  A
C317       Br324   1.930       .  S
C318        C319   1.415       .  A
C318       Br323   1.931       .  S
C319        C320   1.417       .  A
C320       Br969   1.936   1_455  S
Br321       C968   1.936       .  S
O325       Cu333   1.995       .  S
O325        C983   1.276       .  A
O326        C336   1.277       .  A
O327        C337   1.278       .  A
O328       Cu333   2.002       .  S
O328        C986   1.278       .  A
O329        C338   1.277       .  A
O330       Cu334   2.003       .  S
O330        C985   1.277       .  A
O331       Cu334   2.000       .  S
O331        C984   1.277       .  A
O332        C335   1.278       .  A
Cu333      Cu658   2.369       .  S
Cu334      Cu657   2.369   1_565  S
C335        O973   1.276       .  A
C335        C643   1.480       .  S
C336        O979   1.277       .  A
C336        C610   1.476       .  S
C337        O978   1.277       .  A
C337        C620   1.487       .  S
C338        O976   1.278       .  A
C338        C630   1.477       .  S
C339        C345   1.532   1_545  S
C339        C343   1.537       .  S
C339        C558   1.512   1_545  S
C340        H347   1.085       .  S
C340        C341   1.364       .  D
C341        C534   1.467       .  S
C342        C346   1.546   1_545  S
C343        H349   1.086       .  S
C344       C1134   1.479       .  S
C345        H350   1.086       .  S
C345        C346   1.367       .  D
C346        C510   1.483       .  S
C351        C352   1.537       .  S
C351        C357   1.529       .  S
C351        C462   1.518       .  S
C352        H359   1.081       .  S
C353       C1062   1.487       .  S
C354        C358   1.548       .  S
C355        H361   1.086       .  S
C355        C356   1.370       .  D
C356        C438   1.481       .  S
C357        H362   1.085   1_545  S
C357        C358   1.365       .  D
C358        C376   1.486   1_545  S
N363        N364   1.320       .  A
N363       Cu371   2.070       .  S
N363       C1015   1.343       .  A
N364       Cu370   2.072       .  S
N364       C1013   1.343       .  A
C365       N1012   1.343       .  A
C365        C366   1.388       .  A
C365        H368   1.082       .  S
C366        C613   1.491       .  S
C366        C367   1.388       .  A
C367       N1011   1.343       .  A
C367        H369   1.081       .  S
Cu370       N373   2.074       .  S
Cu371       N381   2.071       .  S
Cu372       N374   2.093       .  S
Cu372       N380   2.092       .  S
N373        N374   1.323       .  A
N373        C377   1.349       .  A
N374        C375   1.345       .  A
C375        C376   1.390       .  A
C375        H378   1.081       .  S
C376        C377   1.384       .  A
C377        H379   1.082       .  S
N380        N381   1.322       .  A
N380        C384   1.352       .  A
N381        C382   1.342       .  A
C382        C383   1.384       .  A
C382        H385   1.080       .  S
C383        C445   1.480       .  S
C383        C384   1.389       .  A
C384        H386   1.082       .  S
O387       Cu395   2.010       .  S
O387        C397   1.278       .  A
O388       Cu395   2.008   1_554  S
O388        C398   1.279       .  A
O389       Cu395   1.998       .  S
O389        C399   1.276       .  A
O390       Cu395   1.995   1_554  S
O390        C400   1.275       .  A
O391       Cu396   2.011   1_554  S
O391        C400   1.278       .  A
O392       Cu396   2.010       .  S
O392        C399   1.278       .  A
O393       Cu396   1.995   1_554  S
O393        C398   1.275       .  A
O394       Cu396   1.990       .  S
O394        C397   1.275       .  A
Cu395      Cu396   2.374       .  S
C397        C570   1.473       .  S
C398        C603   1.480       .  S
C399        C593   1.474       .  S
C400        C580   1.471       .  S
N401        N402   1.319       .  A
N401       Cu409   2.059       .  S
N401        C405   1.343       .  A
N402       Cu408   2.068       .  S
N402        C403   1.344       .  A
C403        C404   1.387       .  A
C403        H406   1.082       .  S
C404        C583   1.482       .  S
C404        C405   1.384       .  A
C405        H407   1.082       .  S
Cu408       N411   2.069       .  S
Cu409       N419   2.060       .  S
Cu410       N412   2.098       .  S
Cu410       N418   2.098       .  S
N411        N412   1.323       .  A
N411        C415   1.339       .  A
N412        C413   1.355       .  A
C413        C414   1.391       .  A
C413        H416   1.081       .  S
C414       C1001   1.487       .  S
C414        C415   1.383       .  A
C415       H1065   1.081       .  S
H417       C1063   1.081       .  S
N418        N419   1.323       .  A
N418        C422   1.353       .  A
N419        C420   1.338       .  A
C420        C421   1.379       .  A
C420        H423   1.084       .  S
C421        C422   1.390       .  A
C422        H424   1.084       .  S
N425        N426   1.320       .  A
N425       Cu433   2.063       .  S
N425        C429   1.343       .  A
N426       Cu432   2.070       .  S
N426        C427   1.344       .  A
C427        C428   1.387       .  A
C427        H430   1.083       .  S
C428        C633   1.484       .  S
C428        C429   1.384       .  A
C429        H431   1.082       .  S
Cu432       N435   2.071       .  S
Cu433       N443   2.064       .  S
Cu434       N436   2.103       .  S
Cu434       N442   2.101       .  S
N435        N436   1.324       .  A
N435        C439   1.346       .  A
N436        C437   1.348       .  A
C437        C438   1.389       .  A
C437        H440   1.082       .  S
C438        C439   1.380       .  A
C439        H441   1.082       .  S
N442        N443   1.321       .  A
N442        C446   1.353       .  A
N443        C444   1.342       .  A
C444        C445   1.382       .  A
C444        H447   1.079       .  S
C445        C446   1.391       .  A
C446        H448   1.083       .  S
N449        N450   1.318       .  A
N449       Cu457   2.067       .  S
N449        C453   1.348       .  A
N450       Cu456   2.053   1_565  S
N450        C451   1.340       .  A
C451        C452   1.381       .  A
C451        H454   1.084       .  S
C452        C453   1.386       .  A
C453        H455   1.081       .  S
Cu456       N459   2.052       .  S
Cu457       N467   2.070       .  S
Cu458       N460   2.100       .  S
Cu458       N466   2.102   1_545  S
N459        N460   1.321       .  A
N459        C463   1.336       .  A
N460        C461   1.352       .  A
C461        C462   1.395       .  A
C461        H464   1.082       .  S
C462        C463   1.383       .  A
C463        H465   1.080       .  S
N466        N467   1.326       .  A
N466        C470   1.353       .  A
N467        C468   1.338       .  A
C468        C469   1.379       .  A
C468        H471   1.084       .  S
C469        C470   1.388       .  A
C470        H472   1.083   1_565  S
N473        N474   1.318       .  A
N473       Cu481   2.058       .  S
N473        C477   1.345       .  A
N474       Cu480   2.059       .  S
N474        C475   1.341       .  A
C475        C476   1.382       .  A
C475        H478   1.084       .  S
C476        C573   1.471       .  S
C476        C477   1.382       .  A
C477        H479   1.082       .  S
Cu480       N483   2.062       .  S
Cu481       N491   2.059       .  S
Cu482       N484   2.098       .  S
Cu482       N490   2.097       .  S
N483        N484   1.324       .  A
N483        C487   1.341       .  A
N484        C485   1.349       .  A
C485        C486   1.387       .  A
C485        H488   1.083       .  S
C486        C992   1.479       .  S
C486        C487   1.380       .  A
C487       H1137   1.082       .  S
H489       C1135   1.082       .  S
N490        N491   1.323       .  A
N490        C494   1.355       .  A
N491        C492   1.335       .  A
C492        C493   1.377       .  A
C492        H495   1.083       .  S
C493        C494   1.390       .  A
C494        H496   1.084       .  S
N497        N498   1.321       .  A
N497       Cu505   2.071       .  S
N497       C1149   1.346       .  A
N498       Cu504   2.082       .  S
N498       C1147   1.345       .  A
C499       N1146   1.345       .  A
C499        C500   1.386       .  A
C499        H502   1.083       .  S
C500        C623   1.478       .  S
C500        C501   1.384       .  A
C501       N1145   1.346       .  A
C501        H503   1.082       .  S
Cu504       N507   2.083   1_655  S
Cu505       N515   2.071   1_655  S
Cu506       N508   2.091       .  S
Cu506       N514   2.089       .  S
N507        N508   1.324       .  A
N507        C511   1.349       .  A
N508        C509   1.345       .  A
C509        C510   1.387       .  A
C509        H512   1.081       .  S
C510        C511   1.384       .  A
C511        H513   1.082       .  S
N514        N515   1.322       .  A
N514        C518   1.352       .  A
N515        C516   1.341       .  A
C516        C517   1.381       .  A
C516        H519   1.080       .  S
C517        C541   1.472       .  S
C517        C518   1.387       .  A
C518        H520   1.083       .  S
N521        N522   1.319       .  A
N521       Cu529   2.061       .  S
N521        C525   1.344       .  A
N522       Cu528   2.044       .  S
N522        C523   1.339       .  A
C523        C524   1.378       .  A
C523        H526   1.085       .  S
C524        C640   1.468       .  S
C524        C525   1.384       .  A
C525        H527   1.084       .  S
Cu528       N531   2.045       .  S
Cu529       N539   2.063       .  S
Cu530       N532   2.105       .  S
Cu530       N538   2.105       .  S
N531        N532   1.323       .  A
N531        C535   1.340       .  A
N532        C533   1.351       .  A
C533        C534   1.388       .  A
C533        H536   1.081       .  S
C534        C535   1.373       .  A
C535        H537   1.082       .  S
N538        N539   1.324       .  A
N538        C542   1.353       .  A
N539        C540   1.340       .  A
C540        C541   1.377       .  A
C540        H543   1.081       .  S
C541        C542   1.389       .  A
C542        H544   1.081       .  S
N545        N546   1.317       .  A
N545       Cu553   2.056       .  S
N545        C549   1.344       .  A
N546       Cu552   2.060       .  S
N546        C547   1.343       .  A
C547        C548   1.384       .  A
C547        H550   1.083       .  S
C548        C549   1.383       .  A
C549        H551   1.082       .  S
Cu552       N555   2.059       .  S
Cu553       N563   2.057       .  S
Cu554       N556   2.104   1_545  S
Cu554       N562   2.103       .  S
N555        N556   1.324       .  A
N555        C559   1.340       .  A
N556        C557   1.350   1_565  A
C557        C558   1.393   1_545  A
C557        H560   1.081       .  S
C558        C559   1.378       .  A
C559        H561   1.082       .  S
N562        N563   1.324   1_545  A
N562        C566   1.355       .  A
N563        C564   1.335   1_565  A
C564        C565   1.376       .  A
C564        H567   1.084   1_545  S
C565        C566   1.391       .  A
C566        H568   1.083       .  S
C569        C570   1.410   1_655  A
C569        C574   1.408       .  A
C569       Br576   1.929       .  S
C570       C1219   1.414       .  A
C571       C1218   1.414       .  A
C571        C572   1.402       .  A
C571       Br578   1.935       .  S
C572        C573   1.408       .  A
C572       Br577   1.933       .  S
C573       C1222   1.407       .  A
C574       C1221   1.407       .  A
C574       Br575   1.928       .  S
C579       C1228   1.406       .  A
C579        C584   1.408       .  A
C579       Br586   1.931       .  S
C580       C1227   1.406   1_455  A
C580        C581   1.409       .  A
C581        C582   1.405       .  A
C581       Br588   1.933       .  S
C582       C1231   1.415   1_455  A
C582       Br587   1.934       .  S
C583       C1230   1.415       .  A
C583        C584   1.415       .  A
C584       Br585   1.931       .  S
C589        C590   1.409       .  A
C589        C594   1.405       .  A
C589       Br596   1.933       .  S
C590        C591   1.407       .  A
C591        C592   1.408       .  A
C592        C593   1.410       .  A
C592       Br597   1.930       .  S
C593        C594   1.413       .  A
C594       Br595   1.934       .  S
C599        C600   1.410       .  A
C599        C604   1.408       .  A
C599       Br606   1.929       .  S
C600        C601   1.408       .  A
C601        C602   1.405       .  A
C602        C603   1.417       .  A
C602       Br607   1.935       .  S
C603        C604   1.411       .  A
C604       Br605   1.931       .  S
C609        C610   1.405       .  A
C609        C614   1.409       .  A
C609       Br616   1.930       .  S
C610        C611   1.411       .  A
C611        C612   1.407       .  A
C611       Br618   1.935   1_565  S
C612        C613   1.418       .  A
C612      Br1265   1.935   1_565  S
C613        C614   1.418       .  A
C614       Br615   1.931       .  S
Br617      C1260   1.935   1_545  S
C619       C1268   1.418   1_455  A
C619        C624   1.405       .  A
C619       Br626   1.936       .  S
C620       C1267   1.418       .  A
C620        C621   1.415       .  A
C621        C622   1.412       .  A
C621       Br628   1.930       .  S
C622        C623   1.407       .  A
C622       Br627   1.928       .  S
C623       C1272   1.408       .  A
C624       C1271   1.408   1_455  A
C624       Br625   1.935       .  S
C629        C630   1.412       .  A
C629        C634   1.408       .  A
C629       Br636   1.933       .  S
C630        C631   1.407       .  A
C631        C632   1.408       .  A
C631       Br638   1.931       .  S
C632        C633   1.415       .  A
C632       Br637   1.931       .  S
C633        C634   1.415       .  A
C634       Br635   1.934       .  S
C639        C640   1.407       .  A
C639        C644   1.405       .  A
C639       Br646   1.934       .  S
C640        C641   1.404       .  A
C641        C642   1.406       .  A
C641       Br648   1.930       .  S
C642        C643   1.415       .  A
C642       Br647   1.931       .  S
C643        C644   1.417       .  A
C644      Br1293   1.936   1_455  S
Br645      C1292   1.936       .  S
O649       Cu657   1.995       .  S
O650       Cu981   2.007   1_655  S
O650        C660   1.277   1_655  A
O651       Cu981   2.014   1_655  S
O651        C661   1.278   1_655  A
O652       Cu657   2.002       .  S
O653       Cu982   2.011   1_545  S
O653        C662   1.277       .  A
O654       Cu658   2.003       .  S
O655       Cu658   2.000       .  S
O656       Cu982   2.008   1_545  S
O656        C659   1.278       .  A
Cu657       O974   2.007   1_445  S
Cu657       O975   2.014   1_445  S
Cu658       O977   2.011       .  S
Cu658       O980   2.008       .  S
C659        C967   1.480       .  S
C660        C934   1.476       .  S
C661        C944   1.487   1_455  S
C662        C954   1.477       .  S
C663        C988   1.532       .  S
C663        C669   1.532       .  S
C663        C667   1.537       .  S
C663        C882   1.512       .  S
C664        C987   1.532       .  S
C664        H671   1.085       .  S
C664        C665   1.364       .  D
C665        C990   1.538       .  S
C665        C858   1.467       .  S
C666        C989   1.538       .  S
C666        C670   1.546       .  S
C666        C992   1.537       .  S
C666        H996   1.110       .  S
C667        H673   1.086       .  S
C667        C992   1.369       .  D
C668        C990   1.537       .  S
C668        C991   1.369       .  D
C669        H674   1.086       .  S
C669        C670   1.367       .  D
C670        C834   1.483       .  S
H672        C990   1.110       .  S
C675        C676   1.537       .  S
C675        C681   1.529       .  S
C675       C1003   1.533       .  S
C675        C786   1.518       .  S
C676        H683   1.081       .  S
C676       C1001   1.365       .  D
C677       C1002   1.542       .  S
C677       C1000   1.365       .  D
C678       C1001   1.542       .  S
C678        C682   1.548       .  S
C678       C1004   1.550       .  S
C678       H1008   1.110       .  S
C679        C999   1.533       .  S
C679        H685   1.086       .  S
C679        C680   1.370       .  D
C680       C1002   1.550       .  S
C680        C762   1.481       .  S
C681        H686   1.085       .  S
C681        C682   1.365       .  D
C682        C700   1.486       .  S
H684       C1002   1.110       .  S
N687        N688   1.320       .  A
N687       Cu695   2.070       .  S
N688       Cu694   2.072       .  S
C689        C690   1.388       .  A
C689        H692   1.082   1_455  S
C690        C937   1.491       .  S
C690        C691   1.388       .  A
C691        H693   1.081       .  S
Cu694       N697   2.074       .  S
Cu695       N705   2.071       .  S
Cu696       N698   2.093       .  S
Cu696       N704   2.092       .  S
N697        N698   1.323       .  A
N697        C701   1.349       .  A
N698        C699   1.345       .  A
C699        C700   1.390       .  A
C699        H702   1.081       .  S
C700        C701   1.384       .  A
C701        H703   1.082       .  S
N704        N705   1.322       .  A
N704        C708   1.352       .  A
N705        C706   1.342       .  A
C706        C707   1.384       .  A
C706        H709   1.080       .  S
C707        C769   1.480       .  S
C707        C708   1.389       .  A
C708        H710   1.082       .  S
O711       Cu719   2.010       .  S
O711        C721   1.278       .  A
O712       Cu719   2.008   1_554  S
O712        C722   1.279   1_545  A
O713       Cu719   1.998       .  S
O713        C723   1.276   1_545  A
O714       Cu719   1.995   1_554  S
O714        C724   1.275       .  A
O715       Cu720   2.011   1_554  S
O715        C724   1.278   1_565  A
O716       Cu720   2.010       .  S
O716        C723   1.278       .  A
O717       Cu720   1.995   1_554  S
O717        C722   1.275       .  A
O718       Cu720   1.990       .  S
O718        C721   1.275   1_565  A
Cu719      Cu720   2.374   1_545  S
C721        C894   1.473       .  S
C722        C927   1.480       .  S
C723        C917   1.474       .  S
C724        C904   1.471       .  S
N725        N726   1.319       .  A
N725       Cu733   2.059   1_545  S
N725        C729   1.343       .  A
N726       Cu732   2.068       .  S
N726        C727   1.344       .  A
C727        C728   1.387       .  A
C727        H730   1.082       .  S
C728        C907   1.482       .  S
C728        C729   1.384       .  A
C729        H731   1.082   1_545  S
Cu732       N735   2.069       .  S
Cu733       N743   2.060       .  S
Cu734       N736   2.098       .  S
Cu734       N742   2.098       .  S
N735        N736   1.323       .  A
N735        C739   1.339   1_655  A
N736        C737   1.355       .  A
C737        C738   1.391   1_655  A
C737        H740   1.081       .  S
C738        C739   1.383       .  A
N742        N743   1.323   1_545  A
N742        C746   1.353       .  A
N743        C744   1.338       .  A
C744        C745   1.379       .  A
C744        H747   1.084       .  S
C745       C1117   1.476       .  S
C745        C746   1.390   1_565  A
C746        H748   1.084       .  S
N749        N750   1.320       .  A
N749       Cu757   2.063       .  S
N749        C753   1.343       .  A
N750       Cu756   2.070       .  S
N750        C751   1.344       .  A
C751        C752   1.387       .  A
C751        H754   1.083       .  S
C752        C957   1.484       .  S
C752        C753   1.384       .  A
C753        H755   1.082       .  S
Cu756       N759   2.071       .  S
Cu757       N767   2.064       .  S
Cu758       N760   2.103       .  S
Cu758       N766   2.101       .  S
N759        N760   1.324       .  A
N759        C763   1.346       .  A
N760        C761   1.348       .  A
C761        C762   1.389       .  A
C761        H764   1.082       .  S
C762        C763   1.380       .  A
C763        H765   1.082       .  S
N766        N767   1.321       .  A
N766        C770   1.353       .  A
N767        C768   1.342       .  A
C768        C769   1.382       .  A
C768        H771   1.079       .  S
C769        C770   1.391       .  A
C770        H772   1.083       .  S
N773        N774   1.318       .  A
N773       Cu781   2.067       .  S
N773        C777   1.348       .  A
N774       Cu780   2.053       .  S
N774        C775   1.340       .  A
C775        C776   1.381       .  A
C775        H778   1.084       .  S
C776       C1248   1.476       .  S
C776        C777   1.386       .  A
C777        H779   1.081       .  S
Cu780       N783   2.052       .  S
Cu781       N791   2.070       .  S
Cu782       N784   2.100       .  S
Cu782       N790   2.102       .  S
N783        N784   1.321       .  A
N783        C787   1.336       .  A
N784        C785   1.352       .  A
C785        C786   1.395       .  A
C785        H788   1.082       .  S
C786        C787   1.383       .  A
C787        H789   1.080       .  S
N790        N791   1.326       .  A
N790        C794   1.353       .  A
N791        C792   1.338       .  A
C792        C793   1.379       .  A
C792        H795   1.084       .  S
C793       C1069   1.476       .  S
C793        C794   1.388       .  A
C794        H796   1.083       .  S
N797        N798   1.318       .  A
N797       Cu805   2.058       .  S
N797        C801   1.345       .  A
N798       Cu804   2.059       .  S
N798        C799   1.341       .  A
C799        C800   1.382       .  A
C799        H802   1.084   1_655  S
C800        C897   1.471       .  S
C800        C801   1.382       .  A
C801        H803   1.082       .  S
Cu804       N807   2.062       .  S
Cu805       N815   2.059       .  S
Cu806       N808   2.098       .  S
Cu806       N814   2.097       .  S
N807        N808   1.324       .  A
N807        C811   1.341   1_655  A
N808        C809   1.349       .  A
C809        C810   1.387   1_655  A
C809        H812   1.083       .  S
C810        C811   1.380       .  A
N814        N815   1.323       .  A
N814        C818   1.355       .  A
N815        C816   1.335       .  A
C816        C817   1.377       .  A
C816        H819   1.083       .  S
C817       C1213   1.473       .  S
C817        C818   1.390       .  A
C818        H820   1.084       .  S
N821        N822   1.321       .  A
N821       Cu829   2.071       .  S
N822       Cu828   2.082       .  S
C823        C824   1.386       .  A
C823        H826   1.083       .  S
C824        C947   1.478       .  S
C824        C825   1.384       .  A
C825        H827   1.082       .  S
Cu828       N831   2.083       .  S
Cu829       N839   2.071       .  S
Cu830       N832   2.091       .  S
Cu830       N838   2.089       .  S
N831        N832   1.324       .  A
N831        C835   1.349       .  A
N832        C833   1.345       .  A
C833        C834   1.387       .  A
C833        H836   1.081       .  S
C834        C835   1.384       .  A
C835        H837   1.082       .  S
N838        N839   1.322       .  A
N838        C842   1.352       .  A
N839        C840   1.341       .  A
C840        C841   1.381       .  A
C840        H843   1.080       .  S
C841        C865   1.472       .  S
C841        C842   1.387       .  A
C842        H844   1.083       .  S
N845        N846   1.319       .  A
N845       Cu853   2.061       .  S
N845        C849   1.344       .  A
N846       Cu852   2.044       .  S
N846        C847   1.339       .  A
C847        C848   1.378       .  A
C847        H850   1.085       .  S
C848        C964   1.468       .  S
C848        C849   1.384       .  A
C849        H851   1.084       .  S
Cu852       N855   2.045       .  S
Cu853       N863   2.063       .  S
Cu854       N856   2.105       .  S
Cu854       N862   2.105       .  S
N855        N856   1.323       .  A
N855        C859   1.340       .  A
N856        C857   1.351       .  A
C857        C858   1.388       .  A
C857        H860   1.081       .  S
C858        C859   1.373       .  A
C859        H861   1.082       .  S
N862        N863   1.324       .  A
N862        C866   1.353       .  A
N863        C864   1.340       .  A
C864        C865   1.377       .  A
C864        H867   1.081       .  S
C865        C866   1.389       .  A
C866        H868   1.081       .  S
N869        N870   1.317       .  A
N869       Cu877   2.056       .  S
N869        C873   1.344       .  A
N870       Cu876   2.060       .  S
N870        C871   1.343       .  A
C871        C872   1.384       .  A
C871        H874   1.083       .  S
C872       C1238   1.473       .  S
C872        C873   1.383       .  A
C873        H875   1.082       .  S
Cu876       N879   2.059       .  S
Cu877       N887   2.057       .  S
Cu878       N880   2.104       .  S
Cu878       N886   2.103       .  S
N879        N880   1.324       .  A
N879        C883   1.340       .  A
N880        C881   1.350       .  A
C881        C882   1.393       .  A
C881        H884   1.081       .  S
C882        C883   1.378       .  A
C883        H885   1.082       .  S
N886        N887   1.324       .  A
N886        C890   1.355       .  A
N887        C888   1.335       .  A
C888        C889   1.376       .  A
C888        H891   1.084       .  S
C889       C1141   1.473       .  S
C889        C890   1.391       .  A
C890        H892   1.083       .  S
C893        C894   1.410       .  A
C893        C898   1.408       .  A
C893       Br900   1.929       .  S
C895        C896   1.402   1_455  A
C895       Br902   1.935   1_545  S
C896        C897   1.408       .  A
C896       Br901   1.933   1_545  S
C898       Br899   1.928       .  S
C903        C908   1.408       .  A
C903       Br910   1.931       .  S
C904        C905   1.409       .  A
C905        C906   1.405       .  A
C905       Br912   1.933       .  S
C906       Br911   1.934       .  S
C907        C908   1.415       .  A
C908       Br909   1.931       .  S
C913        C914   1.409       .  A
C913        C918   1.405       .  A
C913       Br920   1.933   1_565  S
C914       C1196   1.473       .  S
C914        C915   1.407       .  A
C915        C916   1.408       .  A
C915      Br1246   1.928       .  S
C916        C917   1.410       .  A
C916       Br921   1.930       .  S
C917        C918   1.413       .  A
C918       Br919   1.934   1_565  S
Br922      C1239   1.928       .  S
C923        C924   1.410       .  A
C923        C928   1.408       .  A
C923       Br930   1.929       .  S
C924       C1100   1.476       .  S
C924        C925   1.408       .  A
C925        C926   1.405       .  A
C925      Br1256   1.933       .  S
C926        C927   1.417       .  A
C926       Br931   1.935       .  S
C927        C928   1.411       .  A
C928       Br929   1.931       .  S
Br932      C1249   1.933       .  S
C933        C934   1.405       .  A
C933        C938   1.409       .  A
C933       Br940   1.930       .  S
C934        C935   1.411   1_455  A
C935        C936   1.407   1_655  A
C935       Br942   1.935       .  S
C936        C937   1.418       .  A
C937        C938   1.418       .  A
C938       Br939   1.931       .  S
C943        C948   1.405       .  A
C943       Br950   1.936       .  S
C944        C945   1.415       .  A
C945        C946   1.412       .  A
C945       Br952   1.930       .  S
C946        C947   1.407       .  A
C946       Br951   1.928       .  S
C948       Br949   1.935       .  S
C953        C954   1.412       .  A
C953        C958   1.408       .  A
C953       Br960   1.933       .  S
C954        C955   1.407       .  A
C955        C956   1.408       .  A
C955       Br962   1.931       .  S
C956        C957   1.415       .  A
C956       Br961   1.931       .  S
C957        C958   1.415       .  A
C958       Br959   1.934       .  S
C963        C964   1.407       .  A
C963        C968   1.405       .  A
C963       Br970   1.934       .  S
C964        C965   1.404       .  A
C965        C966   1.406       .  A
C965       Br972   1.930       .  S
C966        C967   1.415       .  A
C966       Br971   1.931       .  S
C967        C968   1.417       .  A
O973       Cu981   1.995       .  S
O974        C984   1.277   1_655  A
O975        C985   1.278   1_655  A
O976       Cu981   2.002       .  S
O977        C986   1.277       .  A
O978       Cu982   2.003       .  S
O979       Cu982   2.000       .  S
O980        C983   1.278       .  A
C983       C1291   1.480       .  S
C984       C1258   1.476       .  S
C985       C1268   1.487   1_455  S
C986       C1278   1.477       .  S
C987        C993   1.532   1_545  S
C987        C991   1.537       .  S
C987       C1206   1.512   1_545  S
C988        H995   1.085       .  S
C988        C989   1.364       .  D
C989       C1182   1.467       .  S
C990        C994   1.546   1_545  S
C991        H997   1.086       .  S
C993        H998   1.086       .  S
C993        C994   1.367       .  D
C994       C1158   1.483       .  S
C999       C1000   1.537       .  S
C999       C1005   1.529       .  S
C999       C1110   1.518       .  S
C1000      H1007   1.081       .  S
C1002      C1006   1.548       .  S
C1003      H1009   1.086       .  S
C1003      C1004   1.370       .  D
C1004      C1086   1.481       .  S
C1005      H1010   1.085   1_545  S
C1005      C1006   1.365       .  D
C1006      C1024   1.486   1_545  S
N1011      N1012   1.320       .  A
N1011     Cu1019   2.070       .  S
N1012     Cu1018   2.072       .  S
C1013      C1014   1.388       .  A
C1013      H1016   1.082   1_455  S
C1014      C1261   1.491       .  S
C1014      C1015   1.388       .  A
C1015      H1017   1.081       .  S
Cu1018     N1021   2.074       .  S
Cu1019     N1029   2.071       .  S
Cu1020     N1022   2.093       .  S
Cu1020     N1028   2.092       .  S
N1021      N1022   1.323       .  A
N1021      C1025   1.349       .  A
N1022      C1023   1.345       .  A
C1023      C1024   1.390       .  A
C1023      H1026   1.081       .  S
C1024      C1025   1.384       .  A
C1025      H1027   1.082       .  S
N1028      N1029   1.322       .  A
N1028      C1032   1.352       .  A
N1029      C1030   1.342       .  A
C1030      C1031   1.384       .  A
C1030      H1033   1.080       .  S
C1031      C1093   1.480       .  S
C1031      C1032   1.389       .  A
C1032      H1034   1.082       .  S
O1035     Cu1043   2.010       .  S
O1035      C1045   1.278       .  A
O1036     Cu1043   2.008   1_554  S
O1036      C1046   1.279       .  A
O1037     Cu1043   1.998       .  S
O1037      C1047   1.276       .  A
O1038     Cu1043   1.995   1_554  S
O1038      C1048   1.275       .  A
O1039     Cu1044   2.011   1_554  S
O1039      C1048   1.278       .  A
O1040     Cu1044   2.010       .  S
O1040      C1047   1.278       .  A
O1041     Cu1044   1.995   1_554  S
O1041      C1046   1.275       .  A
O1042     Cu1044   1.990       .  S
O1042      C1045   1.275       .  A
Cu1043    Cu1044   2.374       .  S
C1045      C1218   1.473       .  S
C1046      C1251   1.480       .  S
C1047      C1241   1.474       .  S
C1048      C1228   1.471       .  S
N1049      N1050   1.319       .  A
N1049     Cu1057   2.059       .  S
N1049      C1053   1.343       .  A
N1050     Cu1056   2.068       .  S
N1050      C1051   1.344       .  A
C1051      C1052   1.387       .  A
C1051      H1054   1.082       .  S
C1052      C1231   1.482       .  S
C1052      C1053   1.384       .  A
C1053      H1055   1.082       .  S
Cu1056     N1059   2.069       .  S
Cu1057     N1067   2.060       .  S
Cu1058     N1060   2.098       .  S
Cu1058     N1066   2.098       .  S
N1059      N1060   1.323       .  A
N1059      C1063   1.339   1_655  A
N1060      C1061   1.355       .  A
C1061      C1062   1.391   1_655  A
C1061      H1064   1.081       .  S
C1062      C1063   1.383       .  A
N1066      N1067   1.323       .  A
N1066      C1070   1.353       .  A
N1067      C1068   1.338       .  A
C1068      C1069   1.379       .  A
C1068      H1071   1.084       .  S
C1069      C1070   1.390       .  A
C1070      H1072   1.084       .  S
N1073      N1074   1.320       .  A
N1073     Cu1081   2.063       .  S
N1073      C1077   1.343       .  A
N1074     Cu1080   2.070       .  S
N1074      C1075   1.344       .  A
C1075      C1076   1.387       .  A
C1075      H1078   1.083       .  S
C1076      C1281   1.484       .  S
C1076      C1077   1.384       .  A
C1077      H1079   1.082       .  S
Cu1080     N1083   2.071       .  S
Cu1081     N1091   2.064       .  S
Cu1082     N1084   2.103       .  S
Cu1082     N1090   2.101       .  S
N1083      N1084   1.324       .  A
N1083      C1087   1.346       .  A
N1084      C1085   1.348       .  A
C1085      C1086   1.389       .  A
C1085      H1088   1.082       .  S
C1086      C1087   1.380       .  A
C1087      H1089   1.082       .  S
N1090      N1091   1.321       .  A
N1090      C1094   1.353       .  A
N1091      C1092   1.342       .  A
C1092      C1093   1.382       .  A
C1092      H1095   1.079       .  S
C1093      C1094   1.391       .  A
C1094      H1096   1.083       .  S
N1097      N1098   1.318       .  A
N1097     Cu1105   2.067       .  S
N1097      C1101   1.348       .  A
N1098     Cu1104   2.053   1_565  S
N1098      C1099   1.340       .  A
C1099      C1100   1.381       .  A
C1099      H1102   1.084       .  S
C1100      C1101   1.386       .  A
C1101      H1103   1.081       .  S
Cu1104     N1107   2.052       .  S
Cu1105     N1115   2.070       .  S
Cu1106     N1108   2.100       .  S
Cu1106     N1114   2.102   1_545  S
N1107      N1108   1.321       .  A
N1107      C1111   1.336       .  A
N1108      C1109   1.352       .  A
C1109      C1110   1.395       .  A
C1109      H1112   1.082       .  S
C1110      C1111   1.383       .  A
C1111      H1113   1.080       .  S
N1114      N1115   1.326       .  A
N1114      C1118   1.353       .  A
N1115      C1116   1.338       .  A
C1116      C1117   1.379       .  A
C1116      H1119   1.084       .  S
C1117      C1118   1.388       .  A
C1118      H1120   1.083   1_565  S
N1121      N1122   1.318       .  A
N1121     Cu1129   2.058       .  S
N1121      C1125   1.345       .  A
N1122     Cu1128   2.059       .  S
N1122      C1123   1.341       .  A
C1123      C1124   1.382       .  A
C1123      H1126   1.084   1_655  S
C1124      C1221   1.471       .  S
C1124      C1125   1.382       .  A
C1125      H1127   1.082       .  S
Cu1128     N1131   2.062       .  S
Cu1129     N1139   2.059       .  S
Cu1130     N1132   2.098       .  S
Cu1130     N1138   2.097       .  S
N1131      N1132   1.324       .  A
N1131      C1135   1.341   1_655  A
N1132      C1133   1.349       .  A
C1133      C1134   1.387   1_655  A
C1133      H1136   1.083       .  S
C1134      C1135   1.380       .  A
N1138      N1139   1.323       .  A
N1138      C1142   1.355       .  A
N1139      C1140   1.335       .  A
C1140      C1141   1.377       .  A
C1140      H1143   1.083       .  S
C1141      C1142   1.390       .  A
C1142      H1144   1.084       .  S
N1145      N1146   1.321       .  A
N1145     Cu1153   2.071       .  S
N1146     Cu1152   2.082       .  S
C1147      C1148   1.386       .  A
C1147      H1150   1.083       .  S
C1148      C1271   1.478       .  S
C1148      C1149   1.384       .  A
C1149      H1151   1.082       .  S
Cu1152     N1155   2.083       .  S
Cu1153     N1163   2.071       .  S
Cu1154     N1156   2.091       .  S
Cu1154     N1162   2.089       .  S
N1155      N1156   1.324       .  A
N1155      C1159   1.349       .  A
N1156      C1157   1.345       .  A
C1157      C1158   1.387       .  A
C1157      H1160   1.081       .  S
C1158      C1159   1.384       .  A
C1159      H1161   1.082       .  S
N1162      N1163   1.322       .  A
N1162      C1166   1.352       .  A
N1163      C1164   1.341       .  A
C1164      C1165   1.381       .  A
C1164      H1167   1.080       .  S
C1165      C1189   1.472       .  S
C1165      C1166   1.387       .  A
C1166      H1168   1.083       .  S
N1169      N1170   1.319       .  A
N1169     Cu1177   2.061       .  S
N1169      C1173   1.344       .  A
N1170     Cu1176   2.044       .  S
N1170      C1171   1.339       .  A
C1171      C1172   1.378       .  A
C1171      H1174   1.085       .  S
C1172      C1288   1.468       .  S
C1172      C1173   1.384       .  A
C1173      H1175   1.084       .  S
Cu1176     N1179   2.045       .  S
Cu1177     N1187   2.063       .  S
Cu1178     N1180   2.105       .  S
Cu1178     N1186   2.105       .  S
N1179      N1180   1.323       .  A
N1179      C1183   1.340       .  A
N1180      C1181   1.351       .  A
C1181      C1182   1.388       .  A
C1181      H1184   1.081       .  S
C1182      C1183   1.373       .  A
C1183      H1185   1.082       .  S
N1186      N1187   1.324       .  A
N1186      C1190   1.353       .  A
N1187      C1188   1.340       .  A
C1188      C1189   1.377       .  A
C1188      H1191   1.081       .  S
C1189      C1190   1.389       .  A
C1190      H1192   1.081       .  S
N1193      N1194   1.317       .  A
N1193     Cu1201   2.056       .  S
N1193      C1197   1.344       .  A
N1194     Cu1200   2.060       .  S
N1194      C1195   1.343       .  A
C1195      C1196   1.384       .  A
C1195      H1198   1.083       .  S
C1196      C1197   1.383       .  A
C1197      H1199   1.082       .  S
Cu1200     N1203   2.059       .  S
Cu1201     N1211   2.057       .  S
Cu1202     N1204   2.104   1_545  S
Cu1202     N1210   2.103       .  S
N1203      N1204   1.324       .  A
N1203      C1207   1.340       .  A
N1204      C1205   1.350   1_565  A
C1205      C1206   1.393   1_545  A
C1205      H1208   1.081       .  S
C1206      C1207   1.378       .  A
C1207      H1209   1.082       .  S
N1210      N1211   1.324   1_545  A
N1210      C1214   1.355       .  A
N1211      C1212   1.335   1_565  A
C1212      C1213   1.376       .  A
C1212      H1215   1.084   1_545  S
C1213      C1214   1.391       .  A
C1214      H1216   1.083       .  S
C1217      C1218   1.410       .  A
C1217      C1222   1.408       .  A
C1217     Br1224   1.929       .  S
C1219      C1220   1.402   1_455  A
C1219     Br1226   1.935       .  S
C1220      C1221   1.408       .  A
C1220     Br1225   1.933       .  S
C1222     Br1223   1.928       .  S
C1227      C1232   1.408       .  A
C1227     Br1234   1.931       .  S
C1228      C1229   1.409       .  A
C1229      C1230   1.405       .  A
C1229     Br1236   1.933       .  S
C1230     Br1235   1.934       .  S
C1231      C1232   1.415       .  A
C1232     Br1233   1.931       .  S
C1237      C1238   1.409       .  A
C1237      C1242   1.405       .  A
C1237     Br1244   1.933       .  S
C1238      C1239   1.407       .  A
C1239      C1240   1.408       .  A
C1240      C1241   1.410       .  A
C1240     Br1245   1.930       .  S
C1241      C1242   1.413       .  A
C1242     Br1243   1.934       .  S
C1247      C1248   1.410       .  A
C1247      C1252   1.408       .  A
C1247     Br1254   1.929       .  S
C1248      C1249   1.408       .  A
C1249      C1250   1.405       .  A
C1250      C1251   1.417       .  A
C1250     Br1255   1.935       .  S
C1251      C1252   1.411       .  A
C1252     Br1253   1.931       .  S
C1257      C1258   1.405       .  A
C1257      C1262   1.409       .  A
C1257     Br1264   1.930       .  S
C1258      C1259   1.411   1_455  A
C1259      C1260   1.407   1_655  A
C1259     Br1266   1.935   1_565  S
C1260      C1261   1.418       .  A
C1261      C1262   1.418       .  A
C1262     Br1263   1.931       .  S
C1267      C1272   1.405       .  A
C1267     Br1274   1.936       .  S
C1268      C1269   1.415       .  A
C1269      C1270   1.412       .  A
C1269     Br1276   1.930       .  S
C1270      C1271   1.407       .  A
C1270     Br1275   1.928       .  S
C1272     Br1273   1.935       .  S
C1277      C1278   1.412       .  A
C1277      C1282   1.408       .  A
C1277     Br1284   1.933       .  S
C1278      C1279   1.407       .  A
C1279      C1280   1.408       .  A
C1279     Br1286   1.931       .  S
C1280      C1281   1.415       .  A
C1280     Br1285   1.931       .  S
C1281      C1282   1.415       .  A
C1282     Br1283   1.934       .  S
C1287      C1288   1.407       .  A
C1287      C1292   1.405       .  A
C1287     Br1294   1.934       .  S
C1288      C1289   1.404       .  A
C1289      C1290   1.406       .  A
C1289     Br1296   1.930       .  S
C1290      C1291   1.415       .  A
C1290     Br1295   1.931       .  S
C1291      C1292   1.417       .  A
