geometry optimzed in LAMMPS
_audit_creation_date              2020-11-30 
_audit_creation_method            'lammps2cif' 
_symmetry_space_group_name_H-M    'P1' 
_symmetry_Int_Tables_number       1 
_symmetry_cell_setting            triclinic 
loop_ 
_symmetry_equiv_pos_as_xyz 
  x,y,z 
_cell_length_a                    30.96026456 
_cell_length_b                    42.19804396906092 
_cell_length_c                    26.648960534785967 
_cell_angle_alpha                 89.84309799106137 
_cell_angle_beta                  89.87832365121368 
_cell_angle_gamma                 90.1806902908929 
loop_ 
_atom_site_label 
_atom_site_type_symbol 
_atom_site_fract_x 
_atom_site_fract_y 
_atom_site_fract_z 
_atom_site_charge 
N1          N  0.06881033  0.05736459  0.06514416    -0.34300
N2          N  0.09861741  0.04962169  0.16555765    -0.54900
N3          N  0.16407940  0.00617071  0.12813249    -0.34300
N4          N  0.13932526  0.01964002  0.02499051    -0.54900
C5          C  0.04000203  0.07551319  0.08986057     0.29300
C6          C  0.06637688  0.06500248  0.01606111     0.29300
C7          C  0.17964302  0.01082391  0.17492496     0.29300
C8          C  0.19096650  0.98618727  0.10396997     0.29300
C9          C  0.05941069  0.06145991  0.17702504     0.37900
C10         C  0.11886360  0.04351923  0.20918396     0.37900
C11         C  0.11865257  0.02589014  0.98138163     0.37900
C12         C  0.16415083  0.99387802  0.01647621     0.37900
C13         C  0.01901193  0.09523086  0.05623003    -0.19600
C14         C  0.03615047  0.08892358  0.00963961    -0.19600
C15         C  0.21706731  0.99304145  0.18064365    -0.19600
C16         C  0.22359406  0.97691837  0.13618773    -0.19600
C17         C  0.05468075  0.06344875  0.22861353    -0.20700
C18         C  0.09293264  0.05275927  0.24906080    -0.20600
C19         C  0.13351938  0.00586659  0.94400060    -0.20700
C20         C  0.16211727  0.98560832  0.96618258    -0.20600
C21         C  0.02952410  0.07235352  0.14110243    -0.16000
C22         C  0.08223025  0.04587386  0.97664738    -0.16000
C23         C  0.18650021  0.97631821  0.05360930    -0.16000
C24         C  0.15996595  0.02922215  0.21329909    -0.16000
H25         H  0.99324291  0.11174549  0.06427456     0.16900
H26         H  0.02525582  0.09894293  0.97444642     0.16900
H27         H  0.23698553  0.99115370  0.21383926     0.16900
H28         H  0.24996615  0.96095566  0.12801330     0.16900
H29         H  0.02719093  0.07250766  0.24916377     0.15200
H30         H  0.10024956  0.05096063  0.28866121     0.15200
H31         H  0.12324683  0.00455033  0.90532052     0.15200
H32         H  0.17827598  0.96624953  0.94749424     0.15200
H33         H  0.08178933  0.03664567  0.07924563     0.28500
H34         H  0.13508198  0.01402356  0.11419575     0.28500
N35         N  0.97490496  0.96010809  0.87062592    -0.34300
N36         N  0.90765062  0.00299151  0.89892924    -0.54900
N37         N  0.84219545  0.96061499  0.86088804    -0.34300
N38         N  0.90898991  0.91591425  0.83444760    -0.54900
C39         C  0.99598047  0.98035436  0.90145195     0.29300
C40         C  0.99546211  0.93193538  0.87385537     0.29300
C41         C  0.81789821  0.97756019  0.89358341     0.29300
C42         C  0.81800152  0.93607005  0.84455022     0.29300
C43         C  0.94144730  0.02268111  0.90548949     0.37900
C44         C  0.87198771  0.01958820  0.91067807     0.37900
C45         C  0.94518023  0.89959061  0.82267150     0.37900
C46         C  0.87650395  0.90350811  0.80679523     0.37900
C47         C  0.03035148  0.96497080  0.92406453    -0.19600
C48         C  0.03008660  0.93451286  0.90667102    -0.19600
C49         C  0.77720856  0.96390781  0.89717171    -0.19600
C50         C  0.77697281  0.93806125  0.86531043    -0.19600
C51         C  0.92711289  0.05248255  0.91957009    -0.20700
C52         C  0.88303209  0.05036689  0.92359798    -0.20600
C53         C  0.93566491  0.87620282  0.78806695    -0.20700
C54         C  0.89221129  0.87891511  0.77750159    -0.20600
C55         C  0.98400481  0.01199828  0.91135954    -0.16000
C56         C  0.98576462  0.90463904  0.84549183    -0.16000
C57         C  0.83242410  0.91223652  0.81122439    -0.16000
C58         C  0.83108289  0.00576193  0.91804481    -0.16000
H59         H  0.05251357  0.97424922  0.95168178     0.16900
H60         H  0.05260401  0.91627648  0.91778784     0.16900
H61         H  0.75025024  0.97212579  0.91949176     0.16900
H62         H  0.75012008  0.92205340  0.85923545     0.16900
H63         H  0.94660695  0.07274501  0.93007302     0.15200
H64         H  0.86172452  0.06886115  0.93678222     0.15200
H65         H  0.95766143  0.85899603  0.77228881     0.15200
H66         H  0.87402403  0.86385561  0.75236006     0.15200
H67         H  0.95016562  0.96594832  0.84585306     0.28500
H68         H  0.87249754  0.96649629  0.84687539     0.28500
O69         O  0.78680116  0.37248914  0.27960947    -0.55500
C70         C  0.90088508  0.35338895  0.23399433     0.77100
O71         O  0.80331689  0.30393661  0.14467045    -0.56700
C72         C  0.74711411  0.36884475  0.27052971     0.77100
C73         C  0.79962402  0.40251328  0.12985077     0.79500
Cd74       Cd  0.81252666  0.35095541  0.20037098     1.37500
O75         O  0.89175189  0.35220296  0.18778529    -0.55500
O76         O  0.79520020  0.37405347  0.11577588    -0.54300
C77         C  0.80014314  0.28413065  0.18031829     0.79400
O78         O  0.81102697  0.40681445  0.17474490    -0.56700
O79         O  0.86972284  0.35249291  0.26450119    -0.55100
O80         O  0.73699598  0.35633234  0.22906827    -0.55100
O81         O  0.80170662  0.29542467  0.22414239    -0.54300
O82         O  0.79289538  0.04691533  0.21325510    -0.55500
C83         C  0.90043802  0.08154852  0.15348757     0.77100
O84         O  0.77809869  0.07413869  0.05286620    -0.56700
C85         C  0.75240280  0.05047468  0.21263047     0.77100
C86         C  0.79454447  0.14855212  0.15096889     0.79500
Cd87       Cd  0.80794356  0.08110769  0.13964068     1.37500
O88         O  0.87577957  0.06828123  0.18506668    -0.55500
O89         O  0.80005420  0.13019069  0.18793706    -0.54300
C90         C  0.79571420  0.04754410  0.04548079     0.79400
O91         O  0.79277339  0.13556010  0.10826672    -0.56700
O92         O  0.88274200  0.09433069  0.11594950    -0.55100
O93         O  0.73708035  0.06742365  0.17773033    -0.55100
O94         O  0.81657806  0.03589391  0.08176810    -0.54300
N95         N  0.01845084  0.44629625  0.21875663    -0.34300
N96         N  0.07645447  0.48890242  0.16587584    -0.54900
N97         N  0.14750601  0.44784644  0.19593139    -0.34300
N98         N  0.08801743  0.40830547  0.25444901    -0.54900
C99         C  0.99199628  0.47116187  0.21136616     0.29300
C100        C  0.99770718  0.42597953  0.24951794     0.29300
C101        C  0.16917346  0.47023446  0.16935711     0.29300
C102        C  0.17606709  0.43296173  0.22635463     0.29300
C103        C  0.03760421  0.49859234  0.14855857     0.37900
C104        C  0.10553929  0.49609888  0.12966142     0.37900
C105        C  0.05575240  0.38725854  0.26244684     0.37900
C106        C  0.12528567  0.39300348  0.26348826     0.37900
C107        C  0.95420695  0.46694161  0.23870986    -0.19600
C108        C  0.95766180  0.43811331  0.26250396    -0.19600
C109        C  0.21258162  0.46900256  0.18167927    -0.19600
C110        C  0.21686132  0.44580887  0.21817322    -0.19600
C111        C  0.04211266  0.51244848  0.10173878    -0.20700
C112        C  0.08509614  0.51113723  0.08986640    -0.20600
C113        C  0.07237792  0.35839604  0.27759125    -0.20700
C114        C  0.11662071  0.36225264  0.27937908    -0.20600
C115        C  0.99787255  0.49406856  0.17370401    -0.16000
C116        C  0.01168865  0.39502197  0.25947840    -0.16000
C117        C  0.16677909  0.40665440  0.25825007    -0.16000
C118        C  0.15047806  0.49045221  0.13280443    -0.16000
H119        H  0.92605076  0.48208900  0.23889380     0.16900
H120        H  0.93296775  0.42678392  0.28515813     0.16900
H121        H  0.23838727  0.48339099  0.16620078     0.16900
H122        H  0.24682292  0.43862576  0.23562144     0.16900
H123        H  0.01685143  0.52102554  0.07744772     0.15200
H124        H  0.09925139  0.51946671  0.05510187     0.15200
H125        H  0.05449498  0.33723066  0.28768043     0.15200
H126        H  0.13981073  0.34428151  0.28984211     0.15200
H127        H  0.04489812  0.44046202  0.19671383     0.28500
H128        H  0.11577943  0.44123026  0.18969279     0.28500
N129        N  0.92122537  0.56596728  0.02428996    -0.34300
N130        N  0.85533613  0.52717171  0.07323060    -0.54900
N131        N  0.81175323  0.51721829  0.97831149    -0.34300
N132        N  0.88079623  0.55162717  0.92788586    -0.54900
C133        C  0.93719527  0.56577169  0.07154351     0.29300
C134        C  0.95402297  0.57427312  0.99315747     0.29300
C135        C  0.79442931  0.49276976  0.00459917     0.29300
C136        C  0.79789664  0.51489056  0.93053426     0.29300
C137        C  0.87668746  0.53665730  0.11456719     0.37900
C138        C  0.82527876  0.50600664  0.08834374     0.37900
C139        C  0.91772555  0.56484094  0.91037041     0.37900
C140        C  0.85384765  0.54858056  0.88839592     0.37900
C141        C  0.97905281  0.57759271  0.07083170    -0.19600
C142        C  0.98978210  0.58261326  0.02164058    -0.19600
C143        C  0.76748849  0.47543790  0.97341438    -0.19600
C144        C  0.76884705  0.48990002  0.92685961    -0.19600
C145        C  0.85838339  0.52271290  0.15680728    -0.20700
C146        C  0.82613620  0.50301991  0.14014610    -0.20600
C147        C  0.91470919  0.56959201  0.85906321    -0.20700
C148        C  0.87389864  0.55993938  0.84528097    -0.20600
C149        C  0.91839887  0.55043677  0.11372514    -0.16000
C150        C  0.95415190  0.57255760  0.93994846    -0.16000
C151        C  0.81301967  0.53332851  0.88967398    -0.16000
C152        C  0.80228140  0.48580042  0.05578111    -0.16000
H153        H  0.00096339  0.58028707  0.10210138     0.16900
H154        H  0.02118479  0.59034435  0.00856578     0.16900
H155        H  0.74874831  0.45461828  0.98322116     0.16900
H156        H  0.75237504  0.48180006  0.89346012     0.16900
H157        H  0.86970820  0.52440304  0.19511433     0.15200
H158        H  0.80710676  0.48705684  0.16319309     0.15200
H159        H  0.93906464  0.57952194  0.83437593     0.15200
H160        H  0.86111377  0.56011029  0.80750765     0.15200
H161        H  0.89041810  0.55951477  0.01390676     0.28500
H162        H  0.83035502  0.53559632  0.99198477     0.28500
O163        O  0.21450842  0.88301825  0.82528760    -0.55500
C164        C  0.09840849  0.86166694  0.86351403     0.77100
O165        O  0.18095904  0.79704660  0.86997015    -0.56700
C166        C  0.25174075  0.87080639  0.82498243     0.77100
C167        C  0.20258631  0.89633991  0.97847077     0.79500
Cd168      Cd  0.18701295  0.85202293  0.89694527     1.37500
O169        O  0.12938846  0.86039072  0.83274042    -0.55500
O170        O  0.21666818  0.90078223  0.93457737    -0.54300
C171        C  0.19633859  0.78378957  0.90850060     0.79400
O172        O  0.18235390  0.87069335  0.98633564    -0.56700
O173        O  0.10783739  0.85829358  0.90933889    -0.55100
O174        O  0.25949598  0.84985999  0.85782390    -0.55100
O175        O  0.20841816  0.80217813  0.94330790    -0.54300
O176        O  0.19078362  0.54909555  0.84650327    -0.55500
C177        C  0.08106097  0.57863780  0.91124371     0.77100
O178        O  0.19282667  0.57080569  0.01499745    -0.56700
C179        C  0.23099269  0.55424335  0.84670579     0.77100
C180        C  0.19248034  0.64670739  0.92005798     0.79500
Cd181      Cd  0.17467998  0.57914051  0.92416448     1.37500
O182        O  0.09976761  0.59586300  0.94320500    -0.55500
O183        O  0.17826136  0.63105391  0.88312515    -0.54300
C184        C  0.18815457  0.54106205  0.01444400     0.79400
O185        O  0.20052491  0.63090371  0.95942830    -0.56700
O186        O  0.10507678  0.56139236  0.88447333    -0.55100
O187        O  0.24560726  0.57074057  0.88246922    -0.55100
O188        O  0.17950797  0.52878479  0.97251764    -0.54300
N189        N  0.43210071  0.85754619  0.56548653    -0.34300
N190        N  0.39880543  0.87031700  0.66558201    -0.54900
N191        N  0.32916908  0.90705943  0.62234304    -0.34300
N192        N  0.36514661  0.89740541  0.52286957    -0.54900
C193        C  0.46495800  0.84559624  0.59291996     0.29300
C194        C  0.44339060  0.85542007  0.51656658     0.29300
C195        C  0.32083735  0.91017856  0.67183393     0.29300
C196        C  0.31342382  0.93311128  0.59894502     0.29300
C197        C  0.43566874  0.85561289  0.67910534     0.37900
C198        C  0.37414536  0.87261795  0.70715884     0.37900
C199        C  0.38399252  0.88845614  0.47954794     0.37900
C200        C  0.33551206  0.91953900  0.51127327     0.37900
C201        C  0.49609174  0.83347133  0.56079156    -0.19600
C202        C  0.48231455  0.83933188  0.51280712    -0.19600
C203        C  0.29801620  0.93784818  0.68014214    -0.19600
C204        C  0.29409611  0.95269266  0.63420609    -0.19600
C205        C  0.43501997  0.84921303  0.73011098    -0.20700
C206        C  0.39549273  0.85930487  0.74771778    -0.20600
C207        C  0.36446752  0.90382974  0.43952779    -0.20700
C208        C  0.33399128  0.92368484  0.45961063    -0.20600
C209        C  0.46924825  0.84706220  0.64584496    -0.16000
C210        C  0.42372427  0.87195353  0.47627450    -0.16000
C211        C  0.31513008  0.93938388  0.54672344    -0.16000
C212        C  0.33475154  0.88927551  0.70983662    -0.16000
H213        H  0.52636235  0.82237880  0.57070239     0.16900
H214        H  0.50050487  0.83402651  0.47918574     0.16900
H215        H  0.28703012  0.94699540  0.71585022     0.16900
H216        H  0.27844739  0.97520647  0.62749593     0.16900
H217        H  0.45986633  0.83765334  0.75195680     0.15200
H218        H  0.38451744  0.85819484  0.78627140     0.15200
H219        H  0.37339630  0.90251217  0.40029463     0.15200
H220        H  0.31455740  0.94040405  0.43873142     0.15200
H221        H  0.40550072  0.86905755  0.57950325     0.28500
H222        H  0.34168201  0.88683647  0.60580290     0.28500
N223        N  0.52329370  0.97070826  0.36069773    -0.34300
N224        N  0.58290156  0.92492033  0.40416892    -0.54900
N225        N  0.65251614  0.96705970  0.37358038    -0.34300
N226        N  0.59049508  0.01029015  0.32632289    -0.54900
C227        C  0.49691070  0.94561911  0.36727950     0.29300
C228        C  0.50084602  0.99275007  0.33516906     0.29300
C229        C  0.67460784  0.94235440  0.39337378     0.29300
C230        C  0.67838818  0.98172654  0.33960986     0.29300
C231        C  0.54471722  0.91577970  0.42443708     0.37900
C232        C  0.61361666  0.91673412  0.43780854     0.37900
C233        C  0.55857406  0.03205232  0.32409863     0.37900
C234        C  0.62778972  0.02536101  0.31586770     0.37900
C235        C  0.45760701  0.95128508  0.34398450    -0.19600
C236        C  0.45997575  0.98128875  0.32401480    -0.19600
C237        C  0.71564275  0.94151555  0.37273350    -0.19600
C238        C  0.71782703  0.96604851  0.33811717    -0.19600
C239        C  0.55133917  0.90119390  0.47034466    -0.20700
C240        C  0.59491177  0.90155365  0.47870028    -0.20600
C241        C  0.57553043  0.06140084  0.31152819    -0.20700
C242        C  0.61949018  0.05700460  0.30515130    -0.20600
C243        C  0.50375729  0.92191833  0.40334265    -0.16000
C244        C  0.51437972  0.02429783  0.32908777    -0.16000
C245        C  0.66845391  0.01025100  0.31337424    -0.16000
C246        C  0.65837527  0.92190776  0.43122973    -0.16000
H247        H  0.42910280  0.93637004  0.34484046     0.16900
H248        H  0.43397050  0.99382658  0.30560919     0.16900
H249        H  0.74110230  0.92487357  0.38141643     0.16900
H250        H  0.74576020  0.97222505  0.31559942     0.16900
H251        H  0.52724050  0.89272021  0.49645161     0.15200
H252        H  0.61063438  0.89249955  0.51193179     0.15200
H253        H  0.55795048  0.08322017  0.30565319     0.15200
H254        H  0.64272908  0.07503519  0.29450120     0.15200
H255        H  0.55100119  0.97524735  0.38140737     0.28500
H256        H  0.62305320  0.97525711  0.38685490     0.28500
O257        O  0.29547895  0.36609611  0.34674684    -0.55500
C258        C  0.40464188  0.33413021  0.41275739     0.77100
O259        O  0.32183262  0.38754214  0.47352655    -0.56700
C260        C  0.25505867  0.36685343  0.35331970     0.77100
C261        C  0.29424953  0.27069431  0.42386289     0.79500
Cd262      Cd  0.31206881  0.33795865  0.42608279     1.37500
O263        O  0.38573595  0.32522859  0.45237072    -0.55500
O264        O  0.30323998  0.28686149  0.38523454    -0.54300
C265        C  0.30445309  0.37801389  0.51381861     0.79400
O266        O  0.29038103  0.28598140  0.46443748    -0.56700
O267        O  0.38116163  0.34530579  0.37825621    -0.55100
O268        O  0.24066696  0.35449146  0.39334423    -0.55100
O269        O  0.28883390  0.35026344  0.51370458    -0.54300
O270        O  0.28175590  0.04244634  0.31790422    -0.55500
C271        C  0.40184657  0.06415510  0.35978423     0.77100
O272        O  0.30399091  0.11596865  0.44609010    -0.56700
C273        C  0.24287002  0.04961820  0.32667088     0.77100
C274        C  0.30001847  0.01937602  0.46895407     0.79500
Cd275      Cd  0.31205569  0.06745523  0.39320263     1.37500
O276        O  0.37067191  0.06275181  0.32940087    -0.55500
O277        O  0.29713456  0.04834734  0.48054886    -0.54300
C278        C  0.29944707  0.13437898  0.40884373     0.79400
O279        O  0.30806886  0.01306229  0.42366882    -0.56700
O280        O  0.39218022  0.06775281  0.40553035    -0.55100
O281        O  0.23533355  0.06513642  0.36625399    -0.55100
O282        O  0.30018389  0.12159495  0.36600741    -0.54300
N283        N  0.46758729  0.47495904  0.72484022    -0.34300
N284        N  0.41274361  0.43207663  0.66898340    -0.54900
N285        N  0.34075636  0.47453465  0.69073038    -0.34300
N286        N  0.39735605  0.51464960  0.75146249    -0.54900
C287        C  0.49415795  0.44990226  0.72040970     0.29300
C288        C  0.48665822  0.49570556  0.75602915     0.29300
C289        C  0.32069056  0.45044684  0.66668643     0.29300
C290        C  0.31129490  0.48904762  0.72038207     0.29300
C291        C  0.45271517  0.42369853  0.65346534     0.37900
C292        C  0.38596894  0.42595714  0.63017544     0.37900
C293        C  0.42957581  0.53584018  0.75819809     0.37900
C294        C  0.36008615  0.53086750  0.75366176     0.37900
C295        C  0.53009491  0.45421105  0.75069415    -0.19600
C296        C  0.52552819  0.48344935  0.77291473    -0.19600
C297        C  0.27740468  0.45003859  0.67986073    -0.19600
C298        C  0.27156772  0.47413870  0.71440963    -0.19600
C299        C  0.45121444  0.41229592  0.60486012    -0.20700
C300        C  0.40885184  0.41315322  0.59035103    -0.20600
C301        C  0.41278390  0.56584870  0.76544272    -0.20700
C302        C  0.36839644  0.56254457  0.76376790    -0.20600
C303        C  0.49075405  0.42728021  0.68209071    -0.16000
C304        C  0.47341283  0.52730937  0.76099358    -0.16000
C305        C  0.31897733  0.51676289  0.74927975    -0.16000
C306        C  0.34086683  0.43037556  0.63134015    -0.16000
H307        H  0.55815722  0.43905906  0.75331398     0.16900
H308        H  0.54914258  0.49517188  0.79638624     0.16900
H309        H  0.25275935  0.43400841  0.66621404     0.12900
H310        H  0.24128178  0.48052576  0.73196676     0.16900
H311        H  0.47809862  0.40585944  0.58120986     0.15200
H312        H  0.39664832  0.40627373  0.55394694     0.15200
H313        H  0.43052957  0.58747910  0.77276158     0.15200
H314        H  0.34495945  0.58128576  0.76848313     0.15200
H315        H  0.44282826  0.48068673  0.70021775     0.28500
H316        H  0.37191336  0.48239497  0.68310789     0.28500
N317        N  0.56133926  0.35309226  0.52588161    -0.34300
N318        N  0.59938712  0.36540776  0.42683393    -0.54900
N319        N  0.66489458  0.40549273  0.47063933    -0.34300
N320        N  0.62439218  0.39649004  0.56729482    -0.54900
C321        C  0.52841666  0.34374520  0.49589286     0.29300
C322        C  0.54489084  0.35656097  0.57271231     0.29300
C323        C  0.67423243  0.40844531  0.42141848     0.29300
C324        C  0.67860172  0.43219813  0.49379633     0.29300
C325        C  0.56686803  0.34575183  0.41374036     0.37900
C326        C  0.62765407  0.36547063  0.38821766     0.37900
C327        C  0.60700656  0.38566978  0.61046431     0.37900
C328        C  0.65597145  0.41699800  0.57996402     0.37900
C329        C  0.49178752  0.33858955  0.52487486    -0.19600
C330        C  0.50228481  0.34618601  0.57317680    -0.19600
C331        C  0.69587334  0.43678428  0.41305160    -0.19600
C332        C  0.69786573  0.45213757  0.45874348    -0.19600
C333        C  0.57393717  0.33359624  0.36627107    -0.20700
C334        C  0.61305854  0.34556019  0.35043753    -0.20600
C335        C  0.62903062  0.39834256  0.65106250    -0.20700
C336        C  0.65971698  0.41853423  0.63172702    -0.20600
C337        C  0.52985179  0.34013569  0.44309761    -0.16000
C338        C  0.56539513  0.37200014  0.61354759    -0.16000
C339        C  0.67563909  0.43817426  0.54589729    -0.16000
C340        C  0.66365574  0.38592362  0.38441717    -0.16000
H341        H  0.46028807  0.33067102  0.51267848     0.16900
H342        H  0.47989720  0.34558765  0.60433835     0.16900
H343        H  0.70777875  0.44580953  0.37754978     0.16900
H344        H  0.71248572  0.47505719  0.46552891     0.16900
H345        H  0.55319401  0.31764790  0.34553314     0.15200
H346        H  0.62799922  0.34125901  0.31434576     0.15200
H347        H  0.62111181  0.39553438  0.69041717     0.15200
H348        H  0.68073468  0.43387211  0.65323214     0.15200
H349        H  0.59314683  0.35681831  0.51510851     0.28500
H350        H  0.65318842  0.38495227  0.48744971     0.28500
O351        O  0.61701030  0.56361837  0.76087167    -0.55500
C352        C  0.73335858  0.55004659  0.77179400     0.77100
O353        O  0.70148639  0.54629366  0.61626470    -0.56700
C354        C  0.58529361  0.56758721  0.73196898     0.77100
C355        C  0.69273736  0.63536639  0.67122702     0.79500
Cd356      Cd  0.67352920  0.56972171  0.69614590     1.37500
O357        O  0.69733656  0.56222004  0.78263201    -0.55500
O358        O  0.70527234  0.62245655  0.71141751    -0.54300
C359        C  0.68409989  0.51948629  0.62339220     0.79400
O360        O  0.67225196  0.61767760  0.64123257    -0.56700
O361        O  0.74245678  0.54705209  0.72576326    -0.55100
O362        O  0.59377453  0.57355051  0.68646067    -0.55100
O363        O  0.66164672  0.51622742  0.66270555    -0.54300
O364        O  0.70667367  0.87388019  0.71662029    -0.55500
C365        C  0.59693305  0.83872597  0.66391950     0.77100
O366        O  0.71996152  0.84935827  0.55766937    -0.56700
C367        C  0.74680794  0.86839332  0.71654211     0.77100
C368        C  0.70237302  0.77094020  0.64667024     0.79500
Cd369      Cd  0.68917185  0.83908665  0.64420194     1.37500
O370        O  0.62317577  0.84725182  0.69758815    -0.55500
O371        O  0.70606907  0.78793671  0.68542618    -0.54300
C372        C  0.70038707  0.87533924  0.55132300     0.79400
O373        O  0.69457888  0.78548763  0.60616203    -0.56700
O374        O  0.61297252  0.83046192  0.62245135    -0.55100
O375        O  0.76070877  0.84987991  0.68293588    -0.55100
O376        O  0.67857023  0.88527809  0.58813186    -0.54300
C377        C  0.72254625  0.68820784  0.69622256    -0.11000
C378        C  0.70019651  0.66949896  0.66118690     0.11100
C379        C  0.68229414  0.68421169  0.61870633    -0.11000
C380        C  0.68492409  0.71714524  0.61266162    -0.11000
C381        C  0.70513210  0.73597485  0.64921534     0.11100
C382        C  0.72474802  0.72112376  0.69045655    -0.11000
H383        H  0.73693117  0.67754513  0.72917946     0.15100
H384        H  0.66494104  0.67041682  0.59104875     0.15100
H385        H  0.66941841  0.72800886  0.58056982     0.15100
H386        H  0.74077223  0.73506026  0.71900846     0.15100
C387        C  0.68910760  0.49353305  0.58892866    -0.11000
C388        C  0.68751843  0.46904634  0.56556630    -0.12500
C389        C  0.50740974  0.55083789  0.75968814    -0.11000
C390        C  0.54181011  0.56267736  0.74929451    -0.12500
C391        C  0.53128162  0.41376736  0.66241114    -0.14100
C392        C  0.53677974  0.38251351  0.65530087    -0.29300
H393        H  0.55343545  0.43068498  0.64534249     0.14900
H394        H  0.51330941  0.36613992  0.67117385     0.15500
C395        C  0.48911940  0.33378285  0.41814807    -0.11000
C396        C  0.45093864  0.33273833  0.40908099    -0.12500
C397        C  0.31577986  0.41329009  0.59405752    -0.11000
C398        C  0.30536021  0.39731051  0.55839903    -0.12500
C399        C  0.29590006  0.18806924  0.37071767    -0.11000
C400        C  0.29451719  0.16906610  0.41398426     0.11100
C401        C  0.28986333  0.18368408  0.46106245    -0.11000
C402        C  0.28781537  0.21685263  0.46460482    -0.11000
C403        C  0.29067910  0.23576882  0.42113800     0.11100
C404        C  0.29409798  0.22093338  0.37424828    -0.11000
H405        H  0.29943660  0.17757143  0.33390322     0.15100
H406        H  0.28857266  0.16956325  0.49503194     0.15100
H407        H  0.28538218  0.22768753  0.50128904     0.15100
H408        H  0.29644437  0.23478742  0.34007593     0.15100
C409        C  0.48066428  0.04806267  0.33281276    -0.11000
C410        C  0.44591412  0.05936203  0.34350673    -0.12500
C411        C  0.68712887  0.90610393  0.46667191    -0.11000
C412        C  0.69955018  0.89194301  0.50364616    -0.12500
C413        C  0.51213401  0.84123144  0.66577831    -0.11000
C414        C  0.55082166  0.83929485  0.67083972    -0.12500
C415        C  0.30040530  0.96983964  0.52825653    -0.11000
C416        C  0.29642004  0.99426151  0.50513096    -0.12500
C417        C  0.45297750  0.88055327  0.43414088    -0.14100
C418        C  0.46506261  0.91099183  0.43054754    -0.29300
H419        H  0.47081192  0.86245866  0.41402289     0.14900
H420        H  0.44844243  0.92891699  0.45252552     0.15500
C421        C  0.25891776  0.54159205  0.80838244    -0.11000
C422        C  0.28429980  0.53051402  0.77871310    -0.12500
C423        C  0.30815245  0.88583300  0.75429108    -0.11000
C424        C  0.28338081  0.87985973  0.78806878    -0.12500
C425        C  0.18652533  0.73048077  0.87024807    -0.11000
C426        C  0.19903949  0.74872322  0.91178474     0.11100
C427        C  0.21228613  0.73303353  0.95578997    -0.11000
C428        C  0.21153271  0.69972643  0.95846171    -0.11000
C429        C  0.19766335  0.68165859  0.91710894     0.11100
C430        C  0.18591478  0.69748996  0.87283938    -0.11000
H431        H  0.17637393  0.74173666  0.83567979     0.15100
H432        H  0.22222069  0.74646568  0.98837680     0.15100
H433        H  0.22080463  0.68817731  0.99312376     0.15100
H434        H  0.17516019  0.68437363  0.84028054     0.15100
C435        C  0.78616768  0.53540331  0.84548852    -0.11000
C436        C  0.76272130  0.54067044  0.81047134    -0.12500
C437        C  0.99604402  0.57658517  0.91570381    -0.11000
C438        C  0.03454463  0.57785399  0.90779519    -0.12500
C439        C  0.20116150  0.39286283  0.28814888    -0.11000
C440        C  0.22669285  0.38111531  0.31695473    -0.12500
C441        C  0.17735568  0.50671490  0.09589570    -0.11000
C442        C  0.18841085  0.52228425  0.05981421    -0.12500
C443        C  0.94956028  0.53875130  0.15175964    -0.14100
C444        C  0.95847998  0.50765526  0.15159587    -0.29300
H445        H  0.97074748  0.55515916  0.17122255     0.14900
H446        H  0.93835134  0.49142098  0.13021352     0.15500
C447        C  0.72504860  0.03607961  0.25012185    -0.11000
C448        C  0.70078405  0.02434185  0.28059016    -0.12500
C449        C  0.94429572  0.35855342  0.25087981    -0.11000
C450        C  0.97844556  0.37094514  0.26029229    -0.12500
C451        C  0.79214741  0.45438879  0.07515931    -0.11000
C452        C  0.79274726  0.42920468  0.09696979    -0.12500
C453        C  0.69077041  0.38367001  0.34047711    -0.11000
C454        C  0.71528310  0.37797824  0.30661375    -0.12500
C455        C  0.79420537  0.20394335  0.11616825    -0.11000
C456        C  0.79207735  0.18330236  0.15761998     0.11100
C457        C  0.79071246  0.19618097  0.20611985    -0.11000
C458        C  0.79241507  0.22892470  0.21317660    -0.11000
C459        C  0.79564637  0.24960487  0.17191252     0.11100
C460        C  0.79606437  0.23682483  0.12325861    -0.11000
H461        H  0.79558323  0.19465711  0.07835754     0.15100
H462        H  0.78912499  0.18090026  0.23879760     0.15100
H463        H  0.79195924  0.23801917  0.25113705     0.15100
H464        H  0.79858985  0.25218938  0.09076448     0.15100
C465        C  0.80053746  0.89556088  0.78103241    -0.11000
C466        C  0.77545087  0.88281806  0.75263729    -0.12500
C467        C  0.05492575  0.86887035  0.84783857    -0.11000
C468        C  0.02020456  0.88138959  0.84163136    -0.12500
C469        C  0.80513883  0.01939125  0.95812630    -0.11000
C470        C  0.79519635  0.03207200  0.99719906    -0.12500
C471        C  0.18440035  0.03459708  0.25884553    -0.11000
C472        C  0.20919020  0.04102616  0.29222872    -0.12500
C473        C  0.98540242  0.07908024  0.15559549    -0.11000
C474        C  0.94662123  0.08122969  0.15859569    -0.12500
C475        C  0.20642515  0.92081272  0.01586911    -0.11000
C476        C  0.20262833  0.94543315  0.03860764    -0.12500
C477        C  0.01167826  0.03065832  0.94517161    -0.14100
C478        C  0.05234707  0.03941813  0.93415694    -0.29300
H479        H  0.99939953  0.03311185  0.98319868     0.14900
H480        H  0.06477484  0.03542708  0.89660073     0.15500
loop_ 
_geom_bond_atom_site_label_1 
_geom_bond_atom_site_label_2 
_geom_bond_distance 
_geom_bond_site_symmetry_2 
_ccdc_geom_bond_type 
N1            C6   1.349       .  A
N1            C5   1.349       .  A
N1           H33   1.034       .  S
N2            C9   1.349       .  A
N2           C10   1.347       .  A
N3            C8   1.350   1_545  A
N3            C7   1.352       .  A
N3           H34   1.028       .  S
N4           C11   1.354   1_554  A
N4           C12   1.353   1_545  A
C5           C13   1.386       .  A
C5           C21   1.409       .  A
C6           C22   1.414   1_554  A
C6           C14   1.389       .  A
C7           C15   1.391   1_545  A
C7           C24   1.423       .  A
C8           C23   1.413       .  A
C8           C16   1.384       .  A
C9           C21   1.410       .  A
C9           C17   1.385       .  A
C10          C24   1.414       .  A
C10          C18   1.388       .  A
C11          C19   1.387       .  A
C11          C22   1.416       .  A
C12          C20   1.387   1_554  A
C12          C23   1.417       .  A
C13          C14   1.376       .  A
C13          H25   1.082   1_455  S
C14          H26   1.083   1_554  S
C15          C16   1.383       .  A
C15          H27   1.082       .  S
C16          H28   1.082       .  S
C17          C18   1.381       .  A
C17          H29   1.082       .  S
C18          H30   1.082       .  S
C19          C20   1.367   1_545  A
C19          H31   1.081       .  S
C20          H32   1.081       .  S
C21         C473   1.448   1_455  S
C22         C478   1.489       .  S
C23         C476   1.454       .  S
C24         C471   1.450       .  S
N35          C40   1.353       .  A
N35          C39   1.354       .  A
N35          H67   1.042       .  S
N36          C43   1.346       .  A
N36          C44   1.346       .  A
N37          C42   1.350       .  A
N37          C41   1.357       .  A
N37          H68   1.038       .  S
N38          C45   1.354       .  A
N38          C46   1.353       .  A
C39          C47   1.386   1_655  A
C39          C55   1.412   1_565  A
C40          C56   1.411       .  A
C40          C48   1.389   1_655  A
C41          C49   1.387       .  A
C41          C58   1.418   1_565  A
C42          C57   1.416       .  A
C42          C50   1.387       .  A
C43          C55   1.403       .  A
C43          C51   1.387       .  A
C44          C58   1.406       .  A
C44          C52   1.387       .  A
C45          C53   1.384       .  A
C45          C56   1.413       .  A
C46          C54   1.389       .  A
C46          C57   1.419       .  A
C47          C48   1.367       .  A
C47          H59   1.081       .  S
C48          H60   1.081       .  S
C49          C50   1.384       .  A
C49          H61   1.082       .  S
C50          H62   1.082       .  S
C51          C52   1.371       .  A
C51          H63   1.083       .  S
C52          H64   1.082       .  S
C53          C54   1.380       .  A
C53          H65   1.082       .  S
C54          H66   1.082       .  S
C55         C477   1.473   1_655  S
C56         C468   1.455   1_655  S
C57         C465   1.456       .  S
C58         C469   1.456       .  S
O69          C72   1.262       .  A
O69         Cd74   2.435       .  S
C70         C449   1.434       .  S
C70          O79   1.261       .  A
C70          O75   1.265       .  A
O71          C77   1.267       .  A
O71         Cd74   2.497       .  S
C72         C454   1.430       .  S
C72          O80   1.265       .  A
C73         C452   1.442       .  S
C73          O78   1.262       .  A
C73          O76   1.266       .  A
Cd74         O81   2.448       .  S
Cd74         O80   2.470       .  S
Cd74         O79   2.464       .  S
Cd74         O75   2.475       .  S
Cd74         O78   2.453       .  S
Cd74         O76   2.513       .  S
C77          O81   1.264       .  A
C77         C459   1.481       .  S
O82          C85   1.263       .  A
O82         Cd87   2.475       .  S
C83         C474   1.437       .  S
C83          O92   1.262       .  A
C83          O88   1.264       .  A
O84          C90   1.265       .  A
O84         Cd87   2.510       .  S
C85         C447   1.440       .  S
C85          O93   1.266       .  A
C86          O91   1.266       .  A
C86          O89   1.264       .  A
C86         C456   1.480       .  S
Cd87         O94   2.471       .  S
Cd87         O93   2.481       .  S
Cd87         O92   2.461       .  S
Cd87         O88   2.487       .  S
Cd87         O91   2.489       .  S
Cd87         O89   2.454       .  S
C90         C470   1.445   1_554  S
C90          O94   1.263       .  A
N95         C100   1.345   1_455  A
N95          C99   1.347   1_455  A
N95         H127   1.037       .  S
N96         C103   1.353       .  A
N96         C104   1.352       .  A
N97         C102   1.356       .  A
N97         C101   1.354       .  A
N97         H128   1.034       .  S
N98         C105   1.351       .  A
N98         C106   1.346       .  A
C99         C107   1.388       .  A
C99         C115   1.403       .  A
C100        C116   1.402   1_655  A
C100        C108   1.386       .  A
C101        C109   1.385       .  A
C101        C118   1.419       .  A
C102        C117   1.425       .  A
C102        C110   1.389       .  A
C103        C115   1.412   1_455  A
C103        C111   1.383       .  A
C104        C118   1.415       .  A
C104        C112   1.389       .  A
C105        C113   1.383       .  A
C105        C116   1.406       .  A
C106        C114   1.389       .  A
C106        C117   1.413       .  A
C107        C108   1.375       .  A
C107        H119   1.083       .  S
C108        H120   1.082       .  S
C109        C110   1.385       .  A
C109        H121   1.082       .  S
C110        H122   1.082       .  S
C111        C112   1.369       .  A
C111        H123   1.079       .  S
C112        H124   1.081       .  S
C113        C114   1.380       .  A
C113        H125   1.082       .  S
C114        H126   1.082       .  S
C115        C444   1.473       .  S
C116        C450   1.444   1_455  S
C117        C439   1.453       .  S
C118        C441   1.456       .  S
N129        C134   1.355   1_554  A
N129        C133   1.354       .  A
N129        H161   1.030       .  S
N130        C137   1.347       .  A
N130        C138   1.348       .  A
N131        C136   1.348       .  A
N131        C135   1.354   1_556  A
N131        H162   1.032       .  S
N132        C139   1.352       .  A
N132        C140   1.351       .  A
C133        C141   1.387       .  A
C133        C149   1.418       .  A
C134        C150   1.420       .  A
C134        C142   1.389   1_556  A
C135        C143   1.387   1_554  A
C135        C152   1.416       .  A
C136        C151   1.415       .  A
C136        C144   1.388       .  A
C137        C149   1.415       .  A
C137        C145   1.388       .  A
C138        C152   1.411       .  A
C138        C146   1.386       .  A
C139        C147   1.385       .  A
C139        C150   1.415       .  A
C140        C148   1.388       .  A
C140        C151   1.417       .  A
C141        C142   1.367       .  A
C141        H153   1.082   1_655  S
C142        H154   1.081   1_655  S
C143        C144   1.382       .  A
C143        H155   1.082       .  S
C144        H156   1.082       .  S
C145        C146   1.372       .  A
C145        H157   1.083       .  S
C146        H158   1.082       .  S
C147        C148   1.377       .  A
C147        H159   1.082       .  S
C148        H160   1.082       .  S
C149        C443   1.485       .  S
C150        C437   1.457       .  S
C151        C435   1.445       .  S
C152        C451   1.454       .  S
O163        C166   1.264       .  A
O163       Cd168   2.461       .  S
C164        C467   1.443       .  S
C164        O173   1.264       .  A
C164        O169   1.262       .  A
O165        C171   1.263       .  A
O165       Cd168   2.437       .  S
C166        C424   1.437       .  S
C166        O174   1.266       .  A
C167        C475   1.442   1_556  S
C167        O172   1.265       .  A
C167        O170   1.261       .  A
Cd168       O175   2.527       .  S
Cd168       O174   2.474       .  S
Cd168       O173   2.488       .  S
Cd168       O169   2.500       .  S
Cd168       O172   2.515       .  S
Cd168       O170   2.467       .  S
C171        O175   1.267       .  A
C171        C426   1.485       .  S
O176        C179   1.263       .  A
O176       Cd181   2.481       .  S
C177        C438   1.444       .  S
C177        O186   1.263       .  A
C177        O182   1.262       .  A
O178        C184   1.263       .  A
O178       Cd181   2.510   1_554  S
C179        C421   1.441       .  S
C179        O187   1.265       .  A
C180        O185   1.267       .  A
C180        O183   1.266       .  A
C180        C429   1.485       .  S
Cd181       O188   2.487       .  S
Cd181       O187   2.486       .  S
Cd181       O186   2.515       .  S
Cd181       O182   2.478       .  S
Cd181       O185   2.510       .  S
Cd181       O183   2.448       .  S
C184        C442   1.444       .  S
C184        O188   1.262   1_554  A
N189        C194   1.352       .  A
N189        C193   1.352       .  A
N189        H221   1.028       .  S
N190        C197   1.350       .  A
N190        C198   1.348       .  A
N191        C196   1.355       .  A
N191        C195   1.350       .  A
N191        H222   1.037       .  S
N192        C199   1.348       .  A
N192        C200   1.347       .  A
C193        C201   1.388       .  A
C193        C209   1.418       .  A
C194        C210   1.418       .  A
C194        C202   1.389       .  A
C195        C203   1.385       .  A
C195        C212   1.410       .  A
C196        C211   1.417       .  A
C196        C204   1.389       .  A
C197        C209   1.413       .  A
C197        C205   1.385       .  A
C198        C212   1.411       .  A
C198        C206   1.387       .  A
C199        C207   1.387       .  A
C199        C210   1.418       .  A
C200        C208   1.388       .  A
C200        C211   1.413       .  A
C201        C202   1.371       .  A
C201        H213   1.082       .  S
C202        H214   1.082       .  S
C203        C204   1.379       .  A
C203        H215   1.082       .  S
C204        H216   1.082       .  S
C205        C206   1.379       .  A
C205        H217   1.082       .  S
C206        H218   1.082       .  S
C207        C208   1.373       .  A
C207        H219   1.083       .  S
C208        H220   1.082       .  S
C209        C413   1.453       .  S
C210        C417   1.485       .  S
C211        C415   1.450       .  S
C212        C423   1.448       .  S
N223        C228   1.347       .  A
N223        C227   1.346       .  A
N223        H255   1.039       .  S
N224        C231   1.353       .  A
N224        C232   1.353       .  A
N225        C230   1.355       .  A
N225        C229   1.355       .  A
N225        H256   1.038       .  S
N226        C233   1.352       .  A
N226        C234   1.345       .  A
C227        C235   1.388       .  A
C227        C243   1.402       .  A
C228        C244   1.403   1_565  A
C228        C236   1.386       .  A
C229        C237   1.384       .  A
C229        C246   1.416       .  A
C230        C245   1.425   1_565  A
C230        C238   1.391       .  A
C231        C243   1.413       .  A
C231        C239   1.384       .  A
C232        C246   1.413       .  A
C232        C240   1.387       .  A
C233        C241   1.384       .  A
C233        C244   1.412       .  A
C234        C242   1.390       .  A
C234        C245   1.415       .  A
C235        C236   1.374       .  A
C235        H247   1.082       .  S
C236        H248   1.082       .  S
C237        C238   1.386       .  A
C237        H249   1.082       .  S
C238        H250   1.082       .  S
C239        C240   1.368       .  A
C239        H251   1.079       .  S
C240        H252   1.081       .  S
C241        C242   1.384       .  A
C241        H253   1.082       .  S
C242        H254   1.082       .  S
C243        C418   1.471       .  S
C244        C409   1.453       .  S
C245        C448   1.452       .  S
C246        C411   1.461       .  S
O257        C260   1.264       .  A
O257       Cd262   2.478       .  S
C258        C396   1.438       .  S
C258        O267   1.264       .  A
C258        O263   1.262       .  A
O259        C265   1.264       .  A
O259       Cd262   2.466       .  S
C260        C440   1.441       .  S
C260        O268   1.266       .  A
C261        O266   1.266       .  A
C261        O264   1.263       .  A
C261        C403   1.480       .  S
Cd262       O269   2.498       .  S
Cd262       O268   2.480       .  S
Cd262       O267   2.506       .  S
Cd262       O263   2.448       .  S
Cd262       O266   2.506       .  S
Cd262       O264   2.433       .  S
C265        C398   1.442       .  S
C265        O269   1.266       .  A
O270        C273   1.264       .  A
O270       Cd275   2.456       .  S
C271        C410   1.446       .  S
C271        O280   1.264       .  A
C271        O276   1.262       .  A
O272        C278   1.267       .  A
O272       Cd275   2.501       .  S
C273        C472   1.437       .  S
C273        O281   1.265       .  A
C274        C416   1.435   1_545  S
C274        O279   1.261       .  A
C274        O277   1.265       .  A
Cd275       O282   2.424       .  S
Cd275       O281   2.485       .  S
Cd275       O280   2.503       .  S
Cd275       O276   2.493       .  S
Cd275       O279   2.435       .  S
Cd275       O277   2.503       .  S
C278        O282   1.264       .  A
C278        C400   1.479       .  S
N283        C288   1.345       .  A
N283        C287   1.347       .  A
N283        H315   1.039       .  S
N284        C291   1.352       .  A
N284        C292   1.352       .  A
N285        C290   1.354       .  A
N285        C289   1.353       .  A
N285        H316   1.039       .  S
N286        C293   1.350       .  A
N286        C294   1.345       .  A
C287        C295   1.388       .  A
C287        C303   1.404       .  A
C288        C304   1.403       .  A
C288        C296   1.387       .  A
C289        C297   1.385       .  A
C289        C306   1.414       .  A
C290        C305   1.422       .  A
C290        C298   1.389       .  A
C291        C303   1.412       .  A
C291        C299   1.384       .  A
C292        C306   1.410       .  A
C292        C300   1.387       .  A
C293        C301   1.384       .  A
C293        C304   1.407       .  A
C294        C302   1.388       .  A
C294        C305   1.409       .  A
C295        C296   1.378       .  A
C295        H307   1.083       .  S
C296        H308   1.083       .  S
C297        C298   1.386       .  A
C297        H309   1.082       .  S
C298        H310   1.082       .  S
C299        C300   1.369       .  A
C299        H311   1.079       .  S
C300        H312   1.082       .  S
C301        C302   1.382       .  A
C301        H313   1.082       .  S
C302        H314   1.082       .  S
C303        C391   1.476       .  S
C304        C389   1.445       .  S
C305        C422   1.452       .  S
C306        C397   1.454       .  S
N317        C322   1.355       .  A
N317        C321   1.355       .  A
N317        H349   1.037       .  S
N318        C325   1.350       .  A
N318        C326   1.349       .  A
N319        C324   1.354       .  A
N319        C323   1.348       .  A
N319        H350   1.039       .  S
N320        C327   1.347       .  A
N320        C328   1.348       .  A
C321        C329   1.387       .  A
C321        C337   1.416       .  A
C322        C338   1.420       .  A
C322        C330   1.389       .  A
C323        C331   1.386       .  A
C323        C340   1.410       .  A
C324        C339   1.415       .  A
C324        C332   1.388       .  A
C325        C337   1.405       .  A
C325        C333   1.384       .  A
C326        C340   1.411       .  A
C326        C334   1.388       .  A
C327        C335   1.388       .  A
C327        C338   1.412       .  A
C328        C336   1.386       .  A
C328        C339   1.408       .  A
C329        C330   1.367       .  A
C329        H341   1.081       .  S
C330        H342   1.081       .  S
C331        C332   1.382       .  A
C331        H343   1.082       .  S
C332        H344   1.082       .  S
C333        C334   1.376       .  A
C333        H345   1.082       .  S
C334        H346   1.082       .  S
C335        C336   1.373       .  A
C335        H347   1.083       .  S
C336        H348   1.082       .  S
C337        C395   1.451       .  S
C338        C392   1.490       .  S
C339        C388   1.452       .  S
C340        C453   1.443       .  S
O351        C354   1.261       .  A
O351       Cd356   2.467       .  S
C352        C436   1.432       .  S
C352        O361   1.265       .  A
C352        O357   1.263       .  A
O353        C359   1.265       .  A
O353       Cd356   2.503       .  S
C354        C390   1.437       .  S
C354        O362   1.265       .  A
C355        O360   1.265       .  A
C355        O358   1.263       .  A
C355        C378   1.482       .  S
Cd356       O363   2.456       .  S
Cd356       O362   2.489       .  S
Cd356       O361   2.471       .  S
Cd356       O357   2.441       .  S
Cd356       O360   2.495       .  S
Cd356       O358   2.465       .  S
C359        C387   1.440       .  S
C359        O363   1.263       .  A
O364        C367   1.265       .  A
O364       Cd369   2.488       .  S
C365        C414   1.439       .  S
C365        O374   1.261       .  A
C365        O370   1.264       .  A
O366        C372   1.265       .  A
O366       Cd369   2.529       .  S
C367        C466   1.444       .  S
C367        O375   1.266       .  A
C368        O373   1.264       .  A
C368        O371   1.264       .  A
C368        C381   1.480       .  S
Cd369       O376   2.476       .  S
Cd369       O375   2.487       .  S
Cd369       O374   2.457       .  S
Cd369       O370   2.512       .  S
Cd369       O373   2.487       .  S
Cd369       O371   2.477       .  S
C372        C412   1.450       .  S
C372        O376   1.263       .  A
C377        C378   1.406       .  A
C377        C382   1.398       .  A
C377        H383   1.083       .  S
C378        C379   1.405       .  A
C379        C380   1.401       .  A
C379        H384   1.083       .  S
C380        C381   1.405       .  A
C380        H385   1.083       .  S
C381        C382   1.404       .  A
C382        H386   1.083       .  S
C387        C388   1.209       .  T
C389        C390   1.206       .  T
C391        C392   1.344       .  D
C391        H393   1.087       .  S
C392        H394   1.085       .  S
C395        C396   1.208       .  T
C397        C398   1.210       .  T
C399        C400   1.403       .  A
C399        C404   1.392       .  A
C399        H405   1.083       .  S
C400        C401   1.407       .  A
C401        C402   1.405       .  A
C401        H406   1.083       .  S
C402        C403   1.407       .  A
C402        H407   1.083       .  S
C403        C404   1.403       .  A
C404        H408   1.083       .  S
C409        C410   1.212       .  T
C411        C412   1.215       .  T
C413        C414   1.209       .  T
C415        C416   1.206       .  T
C417        C418   1.340       .  D
C417        H419   1.086       .  S
C418        H420   1.088       .  S
C421        C422   1.210       .  T
C423        C424   1.207       .  T
C425        C426   1.404       .  A
C425        C430   1.394       .  A
C425        H431   1.083       .  S
C426        C427   1.408       .  A
C427        C428   1.407       .  A
C427        H432   1.083       .  S
C428        C429   1.409       .  A
C428        H433   1.083       .  S
C429        C430   1.403       .  A
C430        H434   1.083       .  S
C435        C436   1.204       .  T
C437        C438   1.211   1_655  T
C439        C440   1.209       .  T
C441        C442   1.211       .  T
C443        C444   1.342       .  D
C443        H445   1.086       .  S
C444        H446   1.088       .  S
C447        C448   1.209       .  T
C449        C450   1.205       .  T
C451        C452   1.210       .  T
C453        C454   1.203       .  T
C455        C456   1.406       .  A
C455        C460   1.402       .  A
C455        H461   1.083       .  S
C456        C457   1.404       .  A
C457        C458   1.396       .  A
C457        H462   1.083       .  S
C458        C459   1.405       .  A
C458        H463   1.083       .  S
C459        C460   1.406       .  A
C460        H464   1.083       .  S
C465        C466   1.211       .  T
C467        C468   1.211       .  T
C469        C470   1.212       .  T
C471        C472   1.207       .  T
C473        C474   1.207       .  T
C475        C476   1.210       .  T
C477        C478   1.343       .  D
C477        H479   1.087   1_455  S
C478        H480   1.085       .  S
