geometry optimzed in LAMMPS
_audit_creation_date              2020-11-30 
_audit_creation_method            'lammps2cif' 
_symmetry_space_group_name_H-M    'P1' 
_symmetry_Int_Tables_number       1 
_symmetry_cell_setting            triclinic 
loop_ 
_symmetry_equiv_pos_as_xyz 
  x,y,z 
_cell_length_a                    39.09726172461285 
_cell_length_b                    39.10897571310365 
_cell_length_c                    39.0930178940583 
_cell_angle_alpha                 89.61893583913026 
_cell_angle_beta                  90.00031626517088 
_cell_angle_gamma                 90.0232740792705 
loop_ 
_atom_site_label 
_atom_site_type_symbol 
_atom_site_fract_x 
_atom_site_fract_y 
_atom_site_fract_z 
_atom_site_charge 
C1          C  0.75003308  0.50008707  0.99972437    -0.01870
C2          C  0.49837459  0.74871482  0.99980250    -0.01870
C3          C  0.99951495  0.49738934  0.75038759    -0.01870
C4          C  0.50359767  0.99957886  0.74962673    -0.01870
C5          C  0.75302399  0.00072003  0.49891166    -0.01870
C6          C  0.00384393  0.75060400  0.50072471    -0.01870
C7          C  0.25034480  0.49687724  0.99956338    -0.01870
O8          O  0.96879842  0.52787203  0.96574918    -0.71160
O9          O  0.03337379  0.52364609  0.03774951    -0.71380
O10         O  0.03712111  0.52687697  0.96954867    -0.71240
O11         O  0.96507390  0.52489440  0.03404056    -0.71250
O12         O  0.96801330  0.46932591  0.03587999    -0.71210
O13         O  0.03249933  0.47177038  0.96349934    -0.71230
O14         O  0.03647237  0.46842169  0.03176147    -0.71170
O15         O  0.96424211  0.47240131  0.96764316    -0.71350
V16         V  0.00108112  0.52482045  0.00175178     1.35240
V17         V  0.00033004  0.47146885  0.99974058     1.35170
C18         C  0.95497676  0.50075230  0.95520411     0.78080
C19         C  0.04651017  0.49535005  0.04620270     0.78130
C20         C  0.04629584  0.49974469  0.95492689     0.78000
C21         C  0.95492152  0.49681286  0.04644136     0.77970
C22         C  0.86888701  0.49581376  0.91342329     0.03750
C23         C  0.87776154  0.49940583  0.87857413    -0.12400
C24         C  0.91236131  0.50425681  0.86937679     0.01250
C25         C  0.93743674  0.50588042  0.89490513    -0.10930
C26         C  0.92855349  0.50190589  0.92914268     0.03740
C27         C  0.89458053  0.49687343  0.93837830    -0.10350
H28         H  0.85822401  0.49802363  0.85900817     0.09330
H29         H  0.96416073  0.50879548  0.88796976     0.06860
H30         H  0.88805783  0.49408270  0.96523280     0.06710
C31         C  0.99976804  0.50256281  0.24996555    -0.01870
C32         C  0.86824272  0.50191849  0.08736892     0.03750
C33         C  0.89420368  0.50045097  0.06268086    -0.12400
C34         C  0.92821148  0.49637004  0.07236221     0.01250
C35         C  0.93679059  0.49386005  0.10682607    -0.10930
C36         C  0.91141423  0.49581287  0.13207410     0.03740
C37         C  0.87682574  0.49972062  0.12240309    -0.10350
H38         H  0.88786648  0.50237704  0.03571619     0.09330
H39         H  0.96346613  0.49150279  0.11411258     0.06860
H40         H  0.85706543  0.50140833  0.14172910     0.06710
C41         C  0.08794653  0.49657070  0.86839756     0.03750
C42         C  0.12285539  0.50045881  0.87729056    -0.12400
C43         C  0.13208658  0.50478807  0.91206416     0.01250
C44         C  0.10652493  0.50476246  0.93723412    -0.10930
C45         C  0.07238256  0.50074763  0.92842096     0.03740
C46         C  0.06311136  0.49714618  0.89435953    -0.10350
H47         H  0.14241405  0.49968619  0.85770425     0.09330
H48         H  0.11333336  0.50703920  0.96403318     0.06860
H49         H  0.03621020  0.49465546  0.88805012     0.06710
O50         O  0.46840156  0.46270636  0.02842535    -0.71160
O51         O  0.53391509  0.53385268  0.03003454    -0.71380
O52         O  0.46546915  0.53106778  0.03017194    -0.71240
O53         O  0.53666968  0.46554541  0.02799910    -0.71250
O54         O  0.53373366  0.46481316  0.97239246    -0.71210
O55         O  0.46768656  0.53539369  0.97466498    -0.71230
O56         O  0.53606834  0.53321587  0.97439026    -0.71170
O57         O  0.46541919  0.46710289  0.97295430    -0.71350
V58         V  0.50109919  0.49834041  0.02811349     1.35240
V59         V  0.50075687  0.50011210  0.97464353     1.35170
C60         C  0.45548155  0.45329431  0.00047242     0.78080
C61         C  0.54648019  0.54510428  0.00247369     0.78130
C62         C  0.45493032  0.54464095  0.00274900     0.78000
C63         C  0.54668912  0.45362811  0.99980404     0.77970
C64         C  0.63217056  0.58786650  0.99761380     0.03750
C65         C  0.62268410  0.62278707  0.99679954    -0.12400
C66         C  0.58766451  0.63170431  0.99854490     0.01250
C67         C  0.56308449  0.60577147  0.00251989    -0.10930
C68         C  0.57259418  0.57156395  0.00287204     0.03740
C69         C  0.60686131  0.56263501  0.00061174    -0.10350
H70         H  0.64193269  0.64239581  0.99324277     0.09330
H71         H  0.53612001  0.61221038  0.00373503     0.06860
H72         H  0.61387425  0.53578859  0.00056776     0.06710
C73         C  0.50157385  0.24894084  0.99864507    -0.01870
O74         O  0.47602460  0.96491178  0.03534477    -0.71160
O75         O  0.47472291  0.03181833  0.96493661    -0.71380
O76         O  0.47592095  0.96344043  0.96701608    -0.71240
O77         O  0.47456583  0.03334248  0.03329850    -0.71250
O78         O  0.53024580  0.03320058  0.03453319    -0.71210
O79         O  0.53155654  0.96566602  0.96577335    -0.71230
O80         O  0.53034780  0.03409347  0.96617336    -0.71170
O81         O  0.53169591  0.96478843  0.03419669    -0.71350
V82         V  0.47637950  0.99839755  0.00015916     1.35240
V83         V  0.52988914  0.99941767  0.00016959     1.35170
C84         C  0.50408833  0.95329826  0.04636851     0.78080
C85         C  0.50233917  0.04447088  0.95392913     0.78130
C86         C  0.50393089  0.95298721  0.95501940     0.78000
C87         C  0.50217405  0.04486848  0.04525397     0.77970
C88         C  0.50442505  0.86745357  0.91215996     0.03750
C89         C  0.50501310  0.87720768  0.87736309    -0.12400
C90         C  0.50587282  0.91224294  0.86862498     0.01250
C91         C  0.50532272  0.93684932  0.89447810    -0.10930
C92         C  0.50431731  0.92702441  0.92867585     0.03740
C93         C  0.50390217  0.89254153  0.93757338    -0.10350
H94         H  0.50554962  0.85797703  0.85757228     0.09330
H95         H  0.50578711  0.96384654  0.88790100     0.06860
H96         H  0.50326558  0.88514696  0.96436845     0.06710
C97         C  0.50309440  0.99839234  0.24950641    -0.01870
C98         C  0.50029710  0.86656649  0.08794465     0.03750
C99         C  0.50363443  0.89254699  0.06319764    -0.12400
C100        C  0.50443662  0.92674327  0.07260938     0.01250
C101        C  0.50288646  0.93558322  0.10692264    -0.10930
C102        C  0.50020802  0.91029823  0.13237799     0.03740
C103        C  0.49920471  0.87540873  0.12297957    -0.10350
H104        H  0.50425807  0.88614727  0.03623688     0.09330
H105        H  0.50309853  0.96240148  0.11386863     0.06860
H106        H  0.49603235  0.85575339  0.14234946     0.06710
C107        C  0.49873326  0.08669764  0.86747075     0.03750
C108        C  0.49965907  0.12162380  0.87649521    -0.12400
C109        C  0.50114022  0.13074062  0.91138606     0.01250
C110        C  0.50253337  0.10512129  0.93654879    -0.10930
C111        C  0.50186412  0.07079124  0.92748825     0.03740
C112        C  0.49994929  0.06160303  0.89322820    -0.10350
H113        H  0.49844640  0.14124717  0.85686965     0.09330
H114        H  0.50359831  0.11199271  0.96337590     0.06860
H115        H  0.49937385  0.03472941  0.88653614     0.06710
O116        O  0.97733318  0.46680855  0.46503970    -0.71160
O117        O  0.97696015  0.53378278  0.53469936    -0.71380
O118        O  0.97683658  0.53535323  0.46609689    -0.71240
O119        O  0.97726114  0.46548158  0.53342803    -0.71250
O120        O  0.03290625  0.46731550  0.53484891    -0.71210
O121        O  0.03247617  0.53414908  0.46442023    -0.71230
O122        O  0.03256915  0.53571622  0.53296357    -0.71170
O123        O  0.03297452  0.46565705  0.46645956    -0.71350
V124        V  0.97815637  0.50038470  0.49977691     1.35240
V125        V  0.03165455  0.50072037  0.49967133     1.35170
C126        C  0.00522199  0.45457213  0.45436216     0.78080
C127        C  0.00474747  0.54613699  0.54550220     0.78130
C128        C  0.00456558  0.54630897  0.45366135     0.78000
C129        C  0.00515083  0.45488158  0.54570967     0.77970
C130        C  0.00100419  0.58669809  0.63253610     0.03750
C131        C  0.00170665  0.56215099  0.60644384    -0.12400
C132        C  0.00472922  0.57195261  0.57226078     0.01250
C133        C  0.00718940  0.60641221  0.56361781    -0.10930
C134        C  0.00625697  0.63154461  0.58900929     0.03740
C135        C  0.00325311  0.62175972  0.62376635    -0.10350
H136        H  0.99980571  0.53517399  0.61279554     0.09330
H137        H  0.00918214  0.61380042  0.53688518     0.06860
H138        H  0.00208604  0.64103655  0.64348005     0.06710
O139        O  0.47056707  0.02753152  0.46474678    -0.71160
O140        O  0.53657629  0.02544659  0.53519639    -0.71380
O141        O  0.53892318  0.02615315  0.46691718    -0.71240
O142        O  0.46826904  0.02676848  0.53318540    -0.71250
O143        O  0.46962705  0.97114347  0.53520761    -0.71210
O144        O  0.53523409  0.97069866  0.46405132    -0.71230
O145        O  0.53811394  0.96987766  0.53240851    -0.71170
O146        O  0.46702530  0.97198417  0.46679893    -0.71350
V147        V  0.50354894  0.02542834  0.49999360     1.35240
V148        V  0.50251221  0.97196831  0.49965869     1.35170
C149        C  0.45736222  0.00013353  0.45420758     0.78080
C150        C  0.54895928  0.99735533  0.54519797     0.78130
C151        C  0.54857171  0.99832647  0.45390596     0.78000
C152        C  0.45744322  0.99901802  0.54578939     0.77970
C153        C  0.63496828  0.99528410  0.58763658     0.03750
C154        C  0.62569780  0.99953540  0.62228250    -0.12400
C155        C  0.59078730  0.00253309  0.63108865     0.01250
C156        C  0.56586867  0.00126405  0.60541755    -0.10930
C157        C  0.57514764  0.99686143  0.57146326     0.03740
C158        C  0.60940965  0.99370846  0.56253910    -0.10350
H159        H  0.64520029  0.00071542  0.64189455     0.09330
H160        H  0.53898486  0.00347254  0.61195575     0.06860
H161        H  0.61629874  0.99102862  0.53579897     0.06710
C162        C  0.25350407  0.00122723  0.49986842    -0.01870
O163        O  0.03569682  0.03797754  0.47165959    -0.71160
O164        O  0.97216410  0.96504876  0.46952651    -0.71380
O165        O  0.96743685  0.03331721  0.47071595    -0.71240
O166        O  0.04043229  0.96982319  0.47046033    -0.71250
O167        O  0.03566415  0.96434547  0.52572031    -0.71210
O168        O  0.97083071  0.03608396  0.52621824    -0.71230
O169        O  0.96742454  0.96778342  0.52493652    -0.71170
O170        O  0.03920913  0.03252768  0.52701589    -0.71350
V171        V  0.00391584  0.00152134  0.47158036     1.35240
V172        V  0.00328039  0.00021901  0.52499092     1.35170
C173        C  0.04897740  0.04676929  0.49966779     0.78080
C174        C  0.95837887  0.95477900  0.49690219     0.78130
C175        C  0.95751791  0.04615755  0.49852634     0.78000
C176        C  0.04966298  0.95565761  0.49803192     0.77970
C177        C  0.87198075  0.91345798  0.50139186     0.03750
C178        C  0.88072133  0.87844949  0.49909654    -0.12400
C179        C  0.91543413  0.86897017  0.49536044     0.01250
C180        C  0.94071759  0.89435800  0.49379399    -0.10930
C181        C  0.93195309  0.92868262  0.49626452     0.03740
C182        C  0.89793115  0.93817931  0.49978583    -0.10350
H183        H  0.86105591  0.85901492  0.50074552     0.09330
H184        H  0.96746099  0.88727970  0.49163102     0.06860
H185        H  0.89162748  0.96513626  0.50141539     0.06710
C186        C  0.00410829  0.25039342  0.49990738    -0.01870
C187        C  0.87161167  0.08899503  0.49614091     0.03750
C188        C  0.89704373  0.06376267  0.49523893    -0.12400
C189        C  0.93134896  0.07254668  0.49865537     0.01250
C190        C  0.94075185  0.10658670  0.50253747    -0.10930
C191        C  0.91595175  0.13243987  0.50277964     0.03740
C192        C  0.88101814  0.12368541  0.49970744    -0.10350
H193        H  0.89000781  0.03705781  0.49272089     0.09330
H194        H  0.96763750  0.11307645  0.50484145     0.06860
H195        H  0.86158852  0.14338667  0.50031516     0.06710
C196        C  0.09131251  0.86944813  0.50342489     0.03750
C197        C  0.12628949  0.87832682  0.50000056    -0.12400
C198        C  0.13559676  0.91308537  0.49548898     0.01250
C199        C  0.11003240  0.93820903  0.49449119    -0.10930
C200        C  0.07583093  0.92933251  0.49794289     0.03740
C201        C  0.06650467  0.89533030  0.50211850    -0.10350
H202        H  0.14580381  0.85872496  0.50109074     0.09330
H203        H  0.11686113  0.96498208  0.49172153     0.06860
H204        H  0.03956415  0.88898043  0.50420986     0.06710
C205        C  0.41526711  0.99668382  0.63210052     0.03750
C206        C  0.44034395  0.99819626  0.60648972    -0.12400
C207        C  0.43113141  0.99903690  0.57213256     0.01250
C208        C  0.39679115  0.99828641  0.56288725    -0.10930
C209        C  0.37113021  0.99656705  0.58792071     0.03740
C210        C  0.38031345  0.99626151  0.62288908    -0.10350
H211        H  0.46722678  0.99831902  0.61337665     0.09330
H212        H  0.38996873  0.99848784  0.53598342     0.06860
H213        H  0.36076008  0.99457368  0.64244589     0.06710
C214        C  0.00604438  0.41145098  0.63145125     0.03750
C215        C  0.00559049  0.43700691  0.60619873    -0.12400
C216        C  0.00533114  0.42833088  0.57178791     0.01250
C217        C  0.00578632  0.39420303  0.56218025    -0.10930
C218        C  0.00667444  0.36819091  0.58697148     0.03740
C219        C  0.00626704  0.37671693  0.62196307    -0.10350
H220        H  0.00531825  0.46375033  0.61340979     0.09330
H221        H  0.00587408  0.38781367  0.53520809     0.06860
H222        H  0.00689984  0.35682269  0.64134637     0.06710
C223        C  0.09174731  0.13249015  0.49573242     0.03750
C224        C  0.12637584  0.12330697  0.50081521    -0.12400
C225        C  0.13512669  0.08851576  0.50569136     0.01250
C226        C  0.10926241  0.06367550  0.50562762    -0.10930
C227        C  0.07534039  0.07289068  0.50036274     0.03740
C228        C  0.06660563  0.10695976  0.49535535    -0.10350
H229        H  0.14606280  0.14278172  0.50094041     0.09330
H230        H  0.11567480  0.03684570  0.50873607     0.06860
H231        H  0.03991266  0.11372642  0.49187623     0.06710
C232        C  0.63467521  0.00294099  0.41144984     0.03750
C233        C  0.62553602  0.99860069  0.37670310    -0.12400
C234        C  0.59077023  0.99372610  0.36782375     0.01250
C235        C  0.56580528  0.99344060  0.39356789    -0.10930
C236        C  0.57483812  0.99806681  0.42757610     0.03740
C237        C  0.60891207  0.00266504  0.43648966    -0.10350
H238        H  0.64496247  0.99932252  0.35697424     0.09330
H239        H  0.53901683  0.99042074  0.38699297     0.06860
H240        H  0.61542977  0.00570492  0.46327428     0.06710
C241        C  0.00442684  0.59014520  0.36787802     0.03750
C242        C  0.00203205  0.62481066  0.37750814    -0.12400
C243        C  0.00071314  0.63327219  0.41255497     0.01250
C244        C  0.00190648  0.60708047  0.43723967    -0.10930
C245        C  0.00432413  0.57301970  0.42757856     0.03740
C246        C  0.00569904  0.56454540  0.39311484    -0.10350
H247        H  0.00061894  0.64468571  0.35815246     0.09330
H248        H  0.00084093  0.61325555  0.46423989     0.06860
H249        H  0.00718937  0.53786144  0.38583569     0.06710
C250        C  0.58894642  0.36762589  0.99589031     0.03750
C251        C  0.62375407  0.37669730  0.99960105    -0.12400
C252        C  0.63281530  0.41151438  0.00294030     0.01250
C253        C  0.60710756  0.43649912  0.00270298    -0.10930
C254        C  0.57296624  0.42739067  0.99896385     0.03740
C255        C  0.56389192  0.39322735  0.99531835    -0.10350
H256        H  0.64329144  0.35709549  0.00022356     0.09330
H257        H  0.61374691  0.46330652  0.00521765     0.06860
H258        H  0.53709426  0.38641493  0.99293988     0.06710
C259        C  0.50513885  0.08647515  0.13122315     0.03750
C260        C  0.50377361  0.06160438  0.10562630    -0.12400
C261        C  0.50174444  0.07104344  0.07137607     0.01250
C262        C  0.50087452  0.10540002  0.06210448    -0.10930
C263        C  0.50228474  0.13079799  0.08714544     0.03740
C264        C  0.50408333  0.12145447  0.12206309    -0.10350
H265        H  0.50464041  0.03466950  0.11241683     0.09330
H266        H  0.49980326  0.11246462  0.03523446     0.06860
H267        H  0.50555171  0.14092762  0.14156492     0.06710
C268        C  0.36789644  0.58506563  0.00555344     0.03750
C269        C  0.37639282  0.62014624  0.00456598    -0.12400
C270        C  0.41111677  0.62999645  0.00358339     0.01250
C271        C  0.43672333  0.60496800  0.00275226    -0.10930
C272        C  0.42818293  0.57044990  0.00342920     0.03740
C273        C  0.39404043  0.56052644  0.00488185    -0.10350
H274        H  0.35647072  0.63934450  0.00533290     0.09330
H275        H  0.46344220  0.61244789  0.00186602     0.06860
H276        H  0.38774196  0.53350710  0.00540522     0.06710
C277        C  0.08862200  0.49976035  0.13217641     0.03750
C278        C  0.06365128  0.49808730  0.10646520    -0.12400
C279        C  0.07273614  0.49392300  0.07246926     0.01250
C280        C  0.10685862  0.49025099  0.06344343    -0.10930
C281        C  0.13262436  0.49131313  0.08837973     0.03740
C282        C  0.12355798  0.49626200  0.12314177    -0.10350
H283        H  0.03676011  0.50049339  0.11288796     0.09330
H284        H  0.11349159  0.48757553  0.03663599     0.06860
H285        H  0.14321320  0.49782198  0.14256448     0.06710
C286        C  0.00005948  0.41349179  0.36793129     0.03750
C287        C  0.00372010  0.43800888  0.39378323    -0.12400
C288        C  0.00524367  0.42835977  0.42801461     0.01250
C289        C  0.00427033  0.39390208  0.43701172    -0.10930
C290        C  0.00144408  0.36866774  0.41180398     0.03740
C291        C  0.99958252  0.37839552  0.37691189    -0.10350
H292        H  0.00413585  0.46502029  0.38728126     0.09330
H293        H  0.00498977  0.38666286  0.46384380     0.06860
H294        H  0.99624162  0.35918412  0.35738153     0.06710
C295        C  0.41579417  0.00524004  0.36797514     0.03750
C296        C  0.44070595  0.00275985  0.39362634    -0.12400
C297        C  0.43128679  0.00113459  0.42786244     0.01250
C298        C  0.39701669  0.00211266  0.43705187    -0.10930
C299        C  0.37152531  0.00494673  0.41202788     0.03740
C300        C  0.38079437  0.00590971  0.37707500    -0.10350
H301        H  0.46762473  0.00224780  0.38687627     0.09330
H302        H  0.39012944  0.00130573  0.46394323     0.06860
H303        H  0.36132535  0.00817828  0.35750618     0.06710
C304        C  0.36960303  0.41085449  0.99566223     0.03750
C305        C  0.39518950  0.43596418  0.99636448    -0.12400
C306        C  0.42935775  0.42690440  0.99999968     0.01250
C307        C  0.43858012  0.39269376  0.00293628    -0.10930
C308        C  0.41364470  0.36699804  0.00184344     0.03740
C309        C  0.37880605  0.37599152  0.99833034    -0.10350
H310        H  0.38841851  0.46281214  0.99447261     0.09330
H311        H  0.46539544  0.38595689  0.00536634     0.06860
H312        H  0.35934614  0.35631542  0.99743672     0.06710
C313        C  0.03733871  0.20560800  0.46668499    -0.20690
C314        C  0.03520765  0.22570000  0.49652342    -0.08730
C315        C  0.05773575  0.21715869  0.52395229     0.30130
C316        C  0.07985684  0.18906312  0.52159855    -0.20690
C317        C  0.07971227  0.16823000  0.49266754    -0.08740
C318        C  0.05929943  0.17760477  0.46463820     0.30130
F319        F  0.05803978  0.15749591  0.43648644    -0.19260
H320        H  0.02014959  0.21033375  0.44547271     0.18500
H321        H  0.09456070  0.18151634  0.54388697     0.18510
F322        F  0.05626069  0.23302419  0.55463709    -0.19250
C323        C  0.95185860  0.21733657  0.47554319    -0.20690
C324        C  0.97327858  0.22537095  0.50364845    -0.08730
C325        C  0.97019147  0.20463378  0.53338159     0.30130
C326        C  0.94786850  0.17678730  0.53430338    -0.20690
C327        C  0.92844958  0.16799637  0.50558851    -0.08740
C328        C  0.92965992  0.18918228  0.47657571     0.30130
F329        F  0.91227703  0.18047300  0.44786558    -0.19260
H330        H  0.95407706  0.23090663  0.45148670     0.18500
H331        H  0.94796178  0.16016516  0.55658801     0.18510
F332        F  0.99064290  0.20961399  0.56092186    -0.19250
C333        C  0.97999829  0.28287084  0.55260515    -0.20690
C334        C  0.00758774  0.27558747  0.53025787    -0.08730
C335        C  0.03682973  0.29691784  0.53218523     0.30130
C336        C  0.03778967  0.32460547  0.55433649    -0.20690
C337        C  0.00944758  0.33283104  0.57448808    -0.08740
C338        C  0.98093388  0.31114844  0.57443947     0.30130
F339        F  0.95263134  0.31931902  0.59275650    -0.19260
H340        H  0.95634714  0.26865306  0.55139345     0.18500
H341        H  0.05971599  0.34155071  0.55356375     0.18510
F342        F  0.06398175  0.29223139  0.51111736    -0.19250
C343        C  0.96977845  0.32404407  0.44368071    -0.20690
C344        C  0.99834659  0.33288031  0.42392737    -0.08730
C345        C  0.02695327  0.31132157  0.42441163     0.30130
C346        C  0.02783338  0.28274840  0.44630961    -0.20690
C347        C  0.00019344  0.27508074  0.46859323    -0.08740
C348        C  0.97063141  0.29594630  0.46587206     0.30130
F349        F  0.94335040  0.29094264  0.48677575    -0.19260
H350        H  0.94776537  0.34085171  0.44422703     0.18500
H351        H  0.05163596  0.26883124  0.44784573     0.18510
F352        F  0.05547124  0.31996508  0.40654043    -0.19250
C353        C  0.20791064  0.03285787  0.53364225    -0.20690
C354        C  0.22868073  0.03214695  0.50404935    -0.08730
C355        C  0.22072232  0.05596629  0.47746755     0.30130
C356        C  0.19239434  0.07778377  0.48021575    -0.20690
C357        C  0.17078534  0.07609517  0.50869681    -0.08740
C358        C  0.17964390  0.05445774  0.53604513     0.30130
F359        F  0.15892341  0.05180555  0.56381307    -0.19260
H360        H  0.21229937  0.01478761  0.55427156     0.18500
H361        H  0.18535828  0.09355980  0.45845145     0.18510
F362        F  0.23737475  0.05608747  0.44706652    -0.19250
C363        C  0.18015854  0.94576943  0.46457603    -0.20690
C364        C  0.17136546  0.92533447  0.49280632    -0.08730
C365        C  0.19266389  0.92554834  0.52165006     0.30130
C366        C  0.22079255  0.94780836  0.52306543    -0.20690
C367        C  0.22857005  0.97040924  0.49559273    -0.08740
C368        C  0.20773974  0.96834888  0.46601867     0.30130
F369        F  0.21234694  0.99007384  0.43922094    -0.19260
H370        H  0.16353605  0.94661639  0.44241332     0.18500
H371        H  0.23447798  0.94913969  0.54702272     0.18510
F372        F  0.18408948  0.90713848  0.54993309    -0.19250
C373        C  0.32714730  0.96576137  0.55492404    -0.20690
C374        C  0.33546239  0.99360684  0.57564900    -0.08730
C375        C  0.31336082  0.02178209  0.57639356     0.30130
C376        C  0.28495892  0.02319837  0.55445322    -0.20690
C377        C  0.27800149  0.99649156  0.53105470    -0.08740
C378        C  0.29922549  0.96714312  0.53276904     0.30130
F379        F  0.29476384  0.94071021  0.51090390    -0.19260
H380        H  0.34425224  0.94401739  0.55361725     0.18500
H381        H  0.27063379  0.04679151  0.55382925     0.18510
F382        F  0.32129432  0.04950755  0.59553201    -0.19250
C383        C  0.32836129  0.03580837  0.44580053    -0.20690
C384        C  0.33601674  0.00822509  0.42447473    -0.08730
C385        C  0.31375496  0.98018102  0.42378969     0.30130
C386        C  0.28557535  0.97880031  0.44596188    -0.20690
C387        C  0.27884136  0.00549823  0.46941648    -0.08740
C388        C  0.30070495  0.03440200  0.46826131     0.30130
F389        F  0.29657507  0.06067088  0.49038636    -0.19260
H390        H  0.34576925  0.05731642  0.44725873     0.18500
H391        H  0.27103084  0.95532989  0.44648934     0.18510
F392        F  0.32131253  0.95253056  0.40440407    -0.19250
C393        C  0.47987376  0.05247135  0.21759406    -0.20690
C394        C  0.50685056  0.02909148  0.22422166    -0.08730
C395        C  0.53577197  0.03065009  0.20240726     0.30130
C396        C  0.53671381  0.05303838  0.17455723    -0.20690
C397        C  0.50872256  0.07400020  0.16678460    -0.08740
C398        C  0.48082410  0.07462557  0.18924805     0.30130
F399        F  0.45289745  0.09386765  0.18173398    -0.19260
H400        H  0.45645563  0.05179701  0.23222022     0.18500
H401        H  0.55822407  0.05180657  0.15712407     0.18510
F402        F  0.56245630  0.00886403  0.20669612    -0.19250
C403        C  0.52591575  0.94410301  0.21829486    -0.20690
C404        C  0.49898299  0.96745631  0.22487639    -0.08730
C405        C  0.46983797  0.96576232  0.20336229     0.30130
C406        C  0.46870050  0.94336555  0.17575512    -0.20690
C407        C  0.49666268  0.92243649  0.16797320    -0.08740
C408        C  0.52475944  0.92195027  0.19021008     0.30130
F409        F  0.55269105  0.90284433  0.18264573    -0.19260
H410        H  0.54946579  0.94484940  0.23267943     0.18500
H411        H  0.44707766  0.94461774  0.15845886     0.18510
F412        F  0.44316733  0.98752644  0.20759424    -0.19250
C413        C  0.42782041  0.97813953  0.31196536    -0.20690
C414        C  0.42824227  0.00738548  0.33234118    -0.08730
C415        C  0.44920019  0.03491569  0.32276978     0.30130
C416        C  0.47088622  0.03234893  0.29457755    -0.20690
C417        C  0.47236229  0.00237701  0.27459895    -0.08740
C418        C  0.44980999  0.97519716  0.28378721     0.30130
F419        F  0.45121363  0.94422641  0.26850625    -0.19260
H420        H  0.41288920  0.95613030  0.31988348     0.18500
H421        H  0.48834867  0.05327086  0.28957355     0.18510
F422        F  0.45117088  0.06308641  0.34279614    -0.19250
C423        C  0.53607487  0.96503926  0.29490165    -0.20690
C424        C  0.53420251  0.99478782  0.27426530    -0.08730
C425        C  0.55660539  0.02224909  0.28269878     0.30130
C426        C  0.57865700  0.01984658  0.31092398    -0.20690
C427        C  0.57841097  0.99091314  0.33214844    -0.08740
C428        C  0.55782878  0.96300617  0.32312830     0.30130
F429        F  0.55624676  0.93496208  0.34372856    -0.19260
H430        H  0.51878037  0.94391690  0.29045557     0.18500
H431        H  0.59337564  0.04210325  0.31824524     0.18510
F432        F  0.55494522  0.05303583  0.26665534    -0.19250
C433        C  0.53304814  0.20671128  0.03776414    -0.20690
C434        C  0.50222659  0.22387625  0.02972023    -0.08730
C435        C  0.47179500  0.21143187  0.04549188     0.30130
C436        C  0.47271802  0.18345371  0.06798951    -0.20690
C437        C  0.50342539  0.16648021  0.07487773    -0.08740
C438        C  0.53374917  0.17886854  0.06030393     0.30130
F439        F  0.56362039  0.16185934  0.06526108    -0.19260
H440        H  0.55667343  0.21389151  0.02525609     0.18500
H441        H  0.44886598  0.17307096  0.07762715     0.18510
F442        F  0.44048400  0.22369999  0.03691840    -0.19250
C443        C  0.47019127  0.20671351  0.95991232    -0.20690
C444        C  0.50094515  0.22406412  0.96769628    -0.08730
C445        C  0.53139326  0.21171963  0.95206364     0.30130
C446        C  0.53057255  0.18361189  0.93003552    -0.20690
C447        C  0.49993865  0.16640857  0.92345716    -0.08740
C448        C  0.46959400  0.17871317  0.93789456     0.30130
F449        F  0.43978728  0.16153332  0.93328690    -0.19260
H450        H  0.44654410  0.21380982  0.97231647     0.18500
H451        H  0.55445680  0.17336252  0.92049974     0.18510
F452        F  0.56264317  0.22422771  0.96037331    -0.19250
C453        C  0.53876560  0.29191720  0.96633228    -0.20690
C454        C  0.53244567  0.27409612  0.99731421    -0.08730
C455        C  0.54982254  0.28581764  0.02699905     0.30130
C456        C  0.57211881  0.31384746  0.02522991    -0.20690
C457        C  0.57676126  0.33190949  0.99456913    -0.08740
C458        C  0.56049522  0.32023594  0.96493255     0.30130
F459        F  0.56313608  0.33822105  0.93522415    -0.19260
H460        H  0.52519352  0.28505440  0.94326918     0.18500
H461        H  0.58313248  0.32357248  0.04866091     0.18510
F462        F  0.54294212  0.27298722  0.05855572    -0.19250
C463        C  0.46438342  0.29133802  0.03102719    -0.20690
C464        C  0.47064889  0.27394991  0.00002211    -0.08730
C465        C  0.45301773  0.28585044  0.97043149     0.30130
C466        C  0.43055373  0.31371380  0.97230041    -0.20690
C467        C  0.42596940  0.33134202  0.00299634    -0.08740
C468        C  0.44245413  0.31941396  0.03254765     0.30130
F469        F  0.43987908  0.33700153  0.06226733    -0.19260
H470        H  0.47809012  0.28430122  0.05404114     0.18500
H471        H  0.41933876  0.32365597  0.94893308     0.18510
F472        F  0.45977343  0.27334459  0.93888951    -0.19250
C473        C  0.03095834  0.53228552  0.20076304    -0.20690
C474        C  0.03131099  0.50517311  0.22488649    -0.08730
C475        C  0.06112046  0.48420758  0.22402668     0.30130
C476        C  0.08203641  0.48349731  0.19459715    -0.20690
C477        C  0.07604439  0.50629184  0.16742589    -0.08740
C478        C  0.05238576  0.53267142  0.17239973     0.30130
F479        F  0.04806288  0.55748542  0.14830393    -0.19260
H480        H  0.01293778  0.55286724  0.20272013     0.18500
H481        H  0.10236751  0.46481329  0.19282724     0.18510
F482        F  0.07293618  0.46785931  0.25229880    -0.19250
C483        C  0.96055335  0.46943737  0.20977586    -0.20690
C484        C  0.96793472  0.50119866  0.22545177    -0.08730
C485        C  0.95049983  0.53041389  0.21186217     0.30130
C486        C  0.92801556  0.52739826  0.18412388    -0.20690
C487        C  0.92304868  0.49602924  0.16799535    -0.08740
C488        C  0.93869301  0.46686745  0.18167548     0.30130
F489        F  0.93553483  0.43632203  0.16566514    -0.19260
H490        H  0.97373941  0.44643421  0.21752180     0.18500
H491        H  0.91732659  0.55041098  0.17285232     0.18510
F492        F  0.95774471  0.56277057  0.22172930    -0.19250
C493        C  0.96890486  0.47266020  0.29945847    -0.20690
C494        C  0.99566025  0.47111198  0.27512800    -0.08730
C495        C  0.01438560  0.43992635  0.27532690     0.30130
C496        C  0.01507435  0.41911306  0.30499508    -0.20690
C497        C  0.99373255  0.42669106  0.33278465    -0.08740
C498        C  0.96833112  0.45148969  0.32811070     0.30130
F499        F  0.94425100  0.45686688  0.35254147    -0.19260
H500        H  0.94882890  0.49133783  0.29742235     0.18500
H501        H  0.03238774  0.39755557  0.30636436     0.18510
F502        F  0.02808356  0.42702306  0.24630258    -0.19250
C503        C  0.97227103  0.55084059  0.28710866    -0.20690
C504        C  0.00193300  0.53425651  0.27434586    -0.08730
C505        C  0.03326113  0.54203579  0.29112315     0.30130
C506        C  0.03438342  0.56412892  0.31902732    -0.20690
C507        C  0.00456683  0.57878210  0.33197523    -0.08740
C508        C  0.97359200  0.57288256  0.31515075     0.30130
F509        F  0.94395136  0.58523971  0.32826523    -0.19260
H510        H  0.94710274  0.54452926  0.27772707     0.18500
H511        H  0.05832507  0.56732455  0.33259693     0.18510
F512        F  0.06281232  0.52605073  0.28301882    -0.19250
C513        C  0.17707999  0.46089060  0.05531773    -0.20690
C514        C  0.16833140  0.48885866  0.07579067    -0.08730
C515        C  0.18958401  0.51773473  0.07536101     0.30130
C516        C  0.21760399  0.51942553  0.05295637    -0.20690
C517        C  0.22541706  0.49218718  0.03043045    -0.08740
C518        C  0.20461953  0.46259443  0.03263266     0.30130
F519        F  0.20923149  0.43604313  0.01097284    -0.19260
H520        H  0.16049202  0.43871020  0.05459280     0.18500
H521        H  0.23121393  0.54343489  0.05149800     0.18510
F522        F  0.18106562  0.54581889  0.09371025    -0.19250
C523        C  0.20506604  0.53131898  0.96775832    -0.20690
C524        C  0.22557672  0.50158475  0.96859263    -0.08730
C525        C  0.21744702  0.47533609  0.94479627     0.30130
C526        C  0.18917986  0.47854687  0.92285733    -0.20690
C527        C  0.16787847  0.50724457  0.92432159    -0.08740
C528        C  0.17697907  0.53425918  0.94594748     0.30130
F529        F  0.15651701  0.56217053  0.94850795    -0.19260
H530        H  0.20953760  0.55167828  0.98584539     0.18500
H531        H  0.18195593  0.45700385  0.90714844     0.18510
F532        F  0.23393481  0.44485941  0.94477313    -0.19250
C533        C  0.28205696  0.55171445  0.97793392    -0.20690
C534        C  0.27488290  0.52791108  0.00453168    -0.08730
C535        C  0.29596233  0.52904691  0.03402389     0.30130
C536        C  0.32390049  0.55110265  0.03568250    -0.20690
C537        C  0.33238007  0.57230346  0.00799021    -0.08740
C538        C  0.31048078  0.57357239  0.97963473     0.30130
F539        F  0.31862047  0.59317791  0.95202921    -0.19260
H540        H  0.26787428  0.55150998  0.95423767     0.18500
H541        H  0.34082706  0.54945164  0.05757554     0.18510
F542        F  0.29130906  0.50676737  0.06037115    -0.19250
C543        C  0.32577418  0.44440822  0.96476654    -0.20690
C544        C  0.33390321  0.42296281  0.99239940    -0.08730
C545        C  0.31148862  0.42129705  0.02034688     0.30130
C546        C  0.28283419  0.44284371  0.02168399    -0.20690
C547        C  0.27577296  0.46661569  0.99505880    -0.08740
C548        C  0.29762402  0.46620165  0.96611358     0.30130
F549        F  0.29310554  0.48857166  0.93982071    -0.19260
H550        H  0.34311906  0.44647360  0.94322663     0.18500
H551        H  0.26819158  0.44273121  0.04510883     0.18510
F552        F  0.31931715  0.40165213  0.04800713    -0.19250
C553        C  0.03406251  0.79831450  0.53261606    -0.20690
C554        C  0.03547576  0.77543016  0.50472161    -0.08730
C555        C  0.06554121  0.77812247  0.48414159     0.30130
C556        C  0.08564677  0.80804604  0.48482086    -0.20690
C557        C  0.07863925  0.83394745  0.50836496    -0.08740
C558        C  0.05459729  0.82730118  0.53411735     0.30130
F559        F  0.04920722  0.85020023  0.55952532    -0.19260
H560        H  0.01546476  0.79496945  0.55272341     0.18500
H561        H  0.10645495  0.81106237  0.46676515     0.18510
F562        F  0.07950060  0.75089149  0.46821458    -0.19250
C563        C  0.95442613  0.78749713  0.52754219    -0.20690
C564        C  0.97273589  0.77589063  0.49846875    -0.08730
C565        C  0.96685280  0.79391052  0.46730072     0.30130
C566        C  0.94428718  0.82154366  0.46560995    -0.20690
C567        C  0.92738755  0.83312804  0.49482305    -0.08740
C568        C  0.93179168  0.81523126  0.52562487     0.30130
F569        F  0.91748179  0.82717064  0.55484230    -0.19260
H570        H  0.95996670  0.77803772  0.55288558     0.18500
H571        H  0.94247224  0.83604222  0.44196186     0.18510
F572        F  0.98547478  0.78727547  0.43885533    -0.19250
C573        C  0.96975104  0.67537294  0.44765774    -0.20690
C574        C  0.99666055  0.66862205  0.42523574    -0.08730
C575        C  0.02154817  0.69396053  0.42013766     0.30130
C576        C  0.02172393  0.72323292  0.44092705    -0.20690
C577        C  0.99959543  0.72585451  0.46943820    -0.08740
C578        C  0.97060963  0.70390524  0.46869396     0.30130
F579        F  0.94276867  0.70971015  0.48838351    -0.19260
H580        H  0.94880798  0.65738681  0.45026078     0.18500
H581        H  0.03762597  0.74410623  0.43296922     0.18510
F582        F  0.04635014  0.68983668  0.39624022    -0.19250
C583        C  0.97596751  0.71421162  0.55055334    -0.20690
C584        C  0.00534406  0.72546883  0.53223395    -0.08730
C585        C  0.03614888  0.70719731  0.53875392     0.30130
C586        C  0.03704875  0.67920857  0.56108944    -0.20690
C587        C  0.00739967  0.66751884  0.57725432    -0.08740
C588        C  0.97701452  0.68585507  0.57267624     0.30130
F589        F  0.94739467  0.67399397  0.58646615    -0.19260
H590        H  0.95094665  0.72460544  0.54575671     0.18500
H591        H  0.06048914  0.66458669  0.56330175     0.18510
F592        F  0.06521192  0.71403436  0.52122673    -0.19250
C593        C  0.79006536  0.04938761  0.52688906    -0.20690
C594        C  0.77816188  0.03204276  0.49736638    -0.08730
C595        C  0.79614621  0.03879099  0.46640145     0.30130
C596        C  0.82403037  0.06114282  0.46536603    -0.20690
C597        C  0.83574881  0.07712914  0.49499805    -0.08740
C598        C  0.81786067  0.07197112  0.52557853     0.30130
F599        F  0.82992446  0.08540831  0.55515352    -0.19260
H600        H  0.78093778  0.04304488  0.55213329     0.18500
H601        H  0.83853811  0.06353403  0.44184829     0.18510
F602        F  0.78933841  0.02109138  0.43749860    -0.19250
C603        C  0.80075424  0.96993378  0.53069124    -0.20690
C604        C  0.77798562  0.96915571  0.50250861    -0.08730
C605        C  0.78090366  0.93970804  0.48131854     0.30130
C606        C  0.81082885  0.91964984  0.48204900    -0.20690
C607        C  0.83655897  0.92612055  0.50604995    -0.08740
C608        C  0.82983805  0.94954450  0.53209286     0.30130
F609        F  0.85270135  0.95442717  0.55776423    -0.19260
H610        H  0.79722352  0.98789752  0.55117281     0.18500
H611        H  0.81401367  0.89932581  0.46364474     0.18510
F612        F  0.75394231  0.92627740  0.46441398    -0.19250
C613        C  0.72595004  0.98436973  0.43844475    -0.20690
C614        C  0.72809801  0.00548400  0.46762664    -0.08730
C615        C  0.70529941  0.03376672  0.46775430     0.30130
C616        C  0.67662248  0.03453483  0.44666465    -0.20690
C617        C  0.67030451  0.00809482  0.42360564    -0.08740
C618        C  0.69648238  0.98432818  0.41768785     0.30130
F619        F  0.69300554  0.96024627  0.39310988    -0.19260
H620        H  0.74724810  0.96933067  0.43013238     0.18500
H621        H  0.65804925  0.05480527  0.44995142     0.18510
F622        F  0.71013128  0.06072406  0.48874987    -0.19250
C623        C  0.71746583  0.02644217  0.55014751    -0.20690
C624        C  0.72797557  0.99804367  0.53023172    -0.08730
C625        C  0.70930382  0.96719696  0.53521394     0.30130
C626        C  0.68164972  0.96536601  0.55770347    -0.20690
C627        C  0.67077168  0.99413779  0.57563146    -0.08740
C628        C  0.68966688  0.02438254  0.57271905     0.30130
F629        F  0.67869971  0.05319227  0.58848775    -0.19260
H630        H  0.72774724  0.05166686  0.54618065     0.18500
H631        H  0.66660700  0.94209941  0.55869239     0.18510
F632        F  0.71529482  0.93927431  0.51587900    -0.19250
C633        C  0.47014683  0.03302658  0.79407018    -0.20690
C634        C  0.50008916  0.03094568  0.77388035    -0.08730
C635        C  0.52747146  0.05343580  0.78231613     0.30130
C636        C  0.52518449  0.07503986  0.81076435    -0.20690
C637        C  0.49621717  0.07462022  0.83177584    -0.08740
C638        C  0.46817055  0.05444915  0.82237244     0.30130
F639        F  0.44001104  0.05293560  0.84265638    -0.19260
H640        H  0.44886874  0.01598815  0.78932603     0.18500
H641        H  0.54743752  0.08968931  0.81827915     0.18510
F642        F  0.55806862  0.05228387  0.76607682    -0.19250
C643        C  0.47862677  0.94790844  0.78358991    -0.20690
C644        C  0.50681730  0.96925835  0.77531634    -0.08730
C645        C  0.53625371  0.96667805  0.79633017     0.30130
C646        C  0.53708155  0.94445993  0.82429006    -0.20690
C647        C  0.50840583  0.92493969  0.83314973    -0.08740
C648        C  0.47947484  0.92595993  0.81205821     0.30130
F649        F  0.45078404  0.90850544  0.82100528    -0.19260
H650        H  0.45469513  0.94996446  0.76993214     0.18500
H651        H  0.55926797  0.94464929  0.84089523     0.18510
F652        F  0.56381868  0.98709355  0.79101847    -0.19250
C653        C  0.45102864  0.02408623  0.71669917    -0.20690
C654        C  0.47234906  0.99590924  0.72510164    -0.08730
C655        C  0.46888933  0.96607300  0.70497211     0.30130
C656        C  0.44655219  0.96521056  0.67715744    -0.20690
C657        C  0.42748555  0.99406556  0.66779593    -0.08740
C658        C  0.42889072  0.02313625  0.68848316     0.30130
F659        F  0.41171249  0.05190330  0.67925345    -0.19260
H660        H  0.45344632  0.04818310  0.72982264     0.18500
H661        H  0.44645404  0.94285957  0.66092536     0.18510
F662        F  0.48912903  0.93840918  0.71041001    -0.19250
C663        C  0.53572608  0.03191521  0.70313140    -0.20690
C664        C  0.53418414  0.00251690  0.72430438    -0.08730
C665        C  0.55679580  0.97510473  0.71638942     0.30130
C666        C  0.57883080  0.97724671  0.68818466    -0.20690
C667        C  0.57840333  0.00586330  0.66657778    -0.08740
C668        C  0.55753748  0.03370732  0.67498112     0.30130
F669        F  0.55584150  0.06140800  0.65392723    -0.19260
H670        H  0.51842994  0.05306545  0.70741932     0.18500
H671        H  0.59375917  0.95501770  0.68123324     0.18510
F672        F  0.55547021  0.94458944  0.73296862    -0.19250
C673        C  0.03092356  0.46554355  0.79840632    -0.20690
C674        C  0.03157984  0.49319854  0.77489528    -0.08730
C675        C  0.06204576  0.51319996  0.77601576     0.30130
C676        C  0.08236154  0.51364026  0.80591000    -0.20690
C677        C  0.07538813  0.49093224  0.83295538    -0.08740
C678        C  0.05174768  0.46471738  0.82720469     0.30130
F679        F  0.04708734  0.43941059  0.85071829    -0.19260
H680        H  0.01324952  0.44489889  0.79565952     0.18500
H681        H  0.10332476  0.53159018  0.80787627     0.18510
F682        F  0.07605333  0.52683150  0.74731687    -0.19250
C683        C  0.96213064  0.53068592  0.79185094    -0.20690
C684        C  0.96850586  0.49896689  0.77570611    -0.08730
C685        C  0.95122952  0.46982758  0.78959841     0.30130
C686        C  0.92892811  0.47295441  0.81738340    -0.20690
C687        C  0.92439175  0.50429745  0.83362672    -0.08740
C688        C  0.94061373  0.53333031  0.82023178     0.30130
F689        F  0.93816919  0.56373628  0.83661078    -0.19260
H690        H  0.97587100  0.55346069  0.78408481     0.18500
H691        H  0.91798966  0.45000214  0.82856609     0.18510
F692        F  0.95810172  0.43745033  0.77949741    -0.19250
C693        C  0.03241908  0.46003102  0.70880394    -0.20690
C694        C  0.00071469  0.46653527  0.72511836    -0.08730
C695        C  0.97156477  0.44913650  0.71165164     0.30130
C696        C  0.97459353  0.42727090  0.68365011    -0.20690
C697        C  0.00591476  0.42281328  0.66723200    -0.08740
C698        C  0.03502246  0.43865179  0.68051064     0.30130
F699        F  0.06546467  0.43613397  0.66399531    -0.19260
H700        H  0.05531408  0.47345042  0.71635546     0.18500
H701        H  0.95164609  0.41632068  0.67269069     0.18510
F702        F  0.93928918  0.45466370  0.72284190    -0.19250
C703        C  0.01900546  0.55752585  0.72369092    -0.20690
C704        C  0.99607524  0.52956490  0.72592100    -0.08730
C705        C  0.96745559  0.53182494  0.70363195     0.30130
C706        C  0.96807972  0.55267463  0.67464262    -0.20690
C707        C  0.99598958  0.57395882  0.66804380    -0.08740
C708        C  0.02033184  0.57830782  0.69405315     0.30130
F709        F  0.04598136  0.60140683  0.69028818    -0.19260
H710        H  0.03485735  0.56464129  0.74488338     0.18500
H711        H  0.94726908  0.55106732  0.65642097     0.18510
F712        F  0.93820409  0.51458399  0.70994742    -0.19250
C713        C  0.46833327  0.79738367  0.03078443    -0.20690
C714        C  0.49556109  0.77356946  0.03131413    -0.08730
C715        C  0.51676154  0.77491610  0.06092830     0.30130
C716        C  0.51745643  0.80452191  0.08141027    -0.20690
C717        C  0.49456757  0.83141084  0.07504783    -0.08740
C718        C  0.46819301  0.82611128  0.05149657     0.30130
F719        F  0.44344024  0.85005088  0.04679300    -0.19260
H720        H  0.44756942  0.79498759  0.01301750     0.18500
H721        H  0.53609337  0.80660640  0.10176680     0.18510
F722        F  0.53328309  0.74691686  0.07304344    -0.19250
C723        C  0.53124472  0.78982579  0.96104584    -0.20690
C724        C  0.49959061  0.77352802  0.96809177    -0.08730
C725        C  0.47028979  0.78691953  0.95067894     0.30130
C726        C  0.47315142  0.81494666  0.92840816    -0.20690
C727        C  0.50439918  0.83154961  0.92369531    -0.08740
C728        C  0.53363016  0.81826505  0.93946148     0.30130
F729        F  0.56396669  0.83500445  0.93682215    -0.19260
H730        H  0.55423815  0.78233418  0.97438291     0.18500
H731        H  0.45009707  0.82601219  0.91767379     0.18510
F732        F  0.43794921  0.77665155  0.95782648    -0.19250
C733        C  0.45010791  0.71151417  0.97219686    -0.20690
C734        C  0.46687878  0.72390579  0.00188567    -0.08730
C735        C  0.45957048  0.70640715  0.03305054     0.30130
C736        C  0.43751971  0.67829447  0.03401127    -0.20690
C737        C  0.42247210  0.66592000  0.00415082    -0.08740
C738        C  0.42803907  0.68337161  0.97336803     0.30130
F739        F  0.41526150  0.67081870  0.94370446    -0.19260
H740        H  0.45628082  0.72126499  0.94705824     0.18500
H741        H  0.43467152  0.66414834  0.05777304     0.18510
F742        F  0.47610383  0.71399209  0.06244488    -0.19250
C743        C  0.52840004  0.70018300  0.96839013    -0.20690
C744        C  0.52992273  0.72398124  0.99547557    -0.08730
C745        C  0.56107790  0.72364512  0.01427484     0.30130
C746        C  0.58196863  0.69418054  0.01450684    -0.20690
C747        C  0.57446957  0.66682815  0.99271408    -0.08740
C748        C  0.54961101  0.67175627  0.96741657     0.30130
F749        F  0.54415354  0.64770554  0.94309769    -0.19260
H750        H  0.50966786  0.70243400  0.94836745     0.18500
H751        H  0.60355309  0.69263175  0.03178654     0.18510
F752        F  0.57403951  0.75249742  0.02823480    -0.19250
C753        C  0.78220201  0.47659349  0.05330119    -0.20690
C754        C  0.77500220  0.50406964  0.03054126    -0.08730
C755        C  0.79655837  0.53316939  0.03228018     0.30130
C756        C  0.82468184  0.53382851  0.05423514    -0.20690
C757        C  0.83275428  0.50552882  0.07480222    -0.08740
C758        C  0.81054364  0.47742099  0.07524649     0.30130
F759        F  0.81835468  0.44918653  0.09405307    -0.19260
H760        H  0.76791268  0.45298518  0.05233509     0.18500
H761        H  0.84198255  0.55545178  0.05303069     0.18510
F762        F  0.79217494  0.56010061  0.01068232    -0.19250
C763        C  0.79597422  0.46675665  0.96824323    -0.20690
C764        C  0.77488863  0.49612524  0.96881396    -0.08730
C765        C  0.78270813  0.52279291  0.94505211     0.30130
C766        C  0.81128336  0.52042448  0.92354649    -0.20690
C767        C  0.83324689  0.49228320  0.92553767    -0.08740
C768        C  0.82455577  0.46479292  0.94702850     0.30130
F769        F  0.84567107  0.43736630  0.94993150    -0.19260
H770        H  0.79165491  0.44606599  0.98626778     0.18500
H771        H  0.81821211  0.54226412  0.90782153     0.18510
F772        F  0.76575479  0.55300211  0.94480705    -0.19250
C773        C  0.71907509  0.44537731  0.97737765    -0.20690
C774        C  0.72555466  0.46884317  0.00413793    -0.08730
C775        C  0.70408369  0.46693577  0.03330941     0.30130
C776        C  0.67640404  0.44447181  0.03448510    -0.20690
C777        C  0.66846736  0.42373826  0.00651393    -0.08740
C778        C  0.69087802  0.42318029  0.97854081     0.30130
F779        F  0.68335089  0.40409635  0.95065745    -0.19260
H780        H  0.73359921  0.44612620  0.95388809     0.18500
H781        H  0.65910697  0.44561206  0.05610865     0.18510
F782        F  0.70812305  0.48883515  0.05978604    -0.19250
C783        C  0.67505992  0.55439401  0.96592710    -0.20570
C784        C  0.66769903  0.57563671  0.99367304    -0.08730
C785        C  0.69030148  0.57627658  0.02145331     0.30130
C786        C  0.71847354  0.55409829  0.02248565    -0.20690
C787        C  0.72479941  0.53061673  0.99572625    -0.08740
C788        C  0.70269630  0.53189580  0.96700805     0.30130
F789        F  0.70658083  0.50983747  0.94063722    -0.19260
H790        H  0.65742013  0.55298218  0.94460644     0.18500
H791        H  0.73331198  0.55355455  0.04577387     0.18510
F792        F  0.68304757  0.59557525  0.04925038    -0.19250
loop_ 
_geom_bond_atom_site_label_1 
_geom_bond_atom_site_label_2 
_geom_bond_distance 
_geom_bond_site_symmetry_2 
_ccdc_geom_bond_type 
C1          C754   1.559   1_556  S
C1          C764   1.559       .  S
C1          C774   1.560   1_556  S
C1          C787   1.556       .  S
C2          C714   1.578   1_556  S
C2          C724   1.570       .  S
C2          C734   1.569   1_556  S
C2          C744   1.578       .  S
C3          C674   1.586   1_655  S
C3          C684   1.567       .  S
C3          C694   1.565   1_655  S
C3          C704   1.581       .  S
C4          C634   1.561   1_565  S
C4          C644   1.554       .  S
C4          C654   1.560       .  S
C4          C664   1.556   1_565  S
C5          C594   1.571       .  S
C5          C604   1.579   1_545  S
C5          C614   1.574       .  S
C5          C624   1.571   1_545  S
C6          C554   1.580       .  S
C6          C564   1.570   1_455  S
C6          C577   1.574   1_455  S
C6          C584   1.572       .  S
C7          C517   1.561   1_556  S
C7          C524   1.560       .  S
C7          C534   1.560   1_556  S
C7          C547   1.557       .  S
O8           V16   1.894   1_656  S
O8           C18   1.262       .  A
O9           V16   1.891       .  S
O9           C19   1.262       .  A
O10          V16   1.891   1_556  S
O10          C20   1.261       .  A
O11          V16   1.891   1_655  S
O11          C21   1.261       .  A
O12          V17   1.897   1_654  S
O12          C21   1.263       .  A
O13          V17   1.894       .  S
O13          C20   1.263       .  A
O14          V17   1.891   1_554  S
O14          C19   1.261       .  A
O15          V17   1.888   1_655  S
O15          C18   1.261       .  A
V16          V17   2.089   1_554  T
C18          C26   1.451       .  S
C19         C279   1.452       .  S
C20          C45   1.454       .  S
C21          C34   1.455       .  S
C22         C767   1.478       .  S
C22          C23   1.412       .  A
C22          C27   1.401       .  A
C23          C24   1.412       .  A
C23          H28   1.083       .  S
C24         C687   1.475       .  S
C24          C25   1.401       .  A
C25          C26   1.390       .  A
C25          H29   1.085       .  S
C26          C27   1.390       .  A
C27          H30   1.085       .  S
C31         C474   1.578   1_655  S
C31         C484   1.572       .  S
C31         C494   1.578       .  S
C31         C504   1.571   1_655  S
C32         C757   1.478       .  S
C32          C33   1.402       .  A
C32          C37   1.412       .  A
C33          C34   1.391       .  A
C33          H38   1.085       .  S
C34          C35   1.391       .  A
C35          C36   1.402       .  A
C35          H39   1.085       .  S
C36         C487   1.476       .  S
C36          C37   1.412       .  A
C37          H40   1.083       .  S
C41         C677   1.488       .  S
C41          C42   1.417       .  A
C41          C46   1.405       .  A
C42          C43   1.418       .  A
C42          H47   1.083       .  S
C43         C527   1.482       .  S
C43          C44   1.402       .  A
C44          C45   1.388       .  A
C44          H48   1.085       .  S
C45          C46   1.388       .  A
C46          H49   1.085       .  S
O50          V58   1.891       .  S
O50          C60   1.261       .  A
O51          V58   1.892       .  S
O51          C61   1.261       .  A
O52          V58   1.894       .  S
O52          C62   1.262       .  A
O53          V58   1.892       .  S
O53          C63   1.262   1_554  A
O54          V59   1.892       .  S
O54          C63   1.261       .  A
O55          V59   1.891       .  S
O55          C62   1.261   1_556  A
O56          V59   1.892       .  S
O56          C61   1.262   1_556  A
O57          V59   1.892       .  S
O57          C60   1.262   1_556  A
V58          V59   2.091   1_554  T
C60         C306   1.452   1_554  S
C61          C68   1.454       .  S
C62         C272   1.454       .  S
C63         C254   1.453       .  S
C64         C784   1.478       .  S
C64          C65   1.415       .  A
C64          C69   1.402   1_556  A
C65          C66   1.415       .  A
C65          H70   1.083       .  S
C66         C747   1.484       .  S
C66          C67   1.405   1_556  A
C67          C68   1.389       .  A
C67          H71   1.085       .  S
C68          C69   1.388       .  A
C69          H72   1.085       .  S
C73         C434   1.556   1_556  S
C73         C444   1.558       .  S
C73         C454   1.557       .  S
C73         C464   1.557   1_556  S
O74          V82   1.893       .  S
O74          C84   1.262       .  A
O75          V82   1.893   1_546  S
O75          C85   1.262       .  A
O76          V82   1.890   1_556  S
O76          C86   1.261       .  A
O77          V82   1.891   1_545  S
O77          C87   1.261       .  A
O78          V83   1.891   1_545  S
O78          C87   1.262       .  A
O79          V83   1.892   1_556  S
O79          C86   1.262       .  A
O80          V83   1.893   1_546  S
O80          C85   1.261       .  A
O81          V83   1.893       .  S
O81          C84   1.261       .  A
V82          V83   2.092       .  T
C84         C100   1.455       .  S
C85         C111   1.454       .  S
C86          C92   1.451       .  S
C87         C261   1.451       .  S
C88         C727   1.472       .  S
C88          C89   1.411       .  A
C88          C93   1.401       .  A
C89          C90   1.410       .  A
C89          H94   1.083       .  S
C90         C647   1.473       .  S
C90          C91   1.400       .  A
C91          C92   1.389       .  A
C91          H95   1.085       .  S
C92          C93   1.391       .  A
C93          H96   1.085       .  S
C97         C394   1.557   1_565  S
C97         C404   1.560       .  S
C97         C417   1.560   1_565  S
C97         C424   1.560       .  S
C98         C717   1.484       .  S
C98          C99   1.404       .  A
C98         C103   1.415       .  A
C99         C100   1.390       .  A
C99         H104   1.085       .  S
C100        C101   1.389       .  A
C101        C102   1.402       .  A
C101        H105   1.085       .  S
C102        C407   1.480       .  S
C102        C103   1.416       .  A
C103        H106   1.083       .  S
C107        C637   1.479       .  S
C107        C108   1.413       .  A
C107        C112   1.402       .  A
C108        C109   1.413       .  A
C108        H113   1.083       .  S
C109        C447   1.476       .  S
C109        C110   1.401       .  A
C110        C111   1.391       .  A
C110        H114   1.085       .  S
C111        C112   1.391       .  A
C112        H115   1.085       .  S
O116        V124   1.896       .  S
O116        C126   1.263   1_655  A
O117        V124   1.896       .  S
O117        C127   1.263   1_655  A
O118        V124   1.893       .  S
O118        C128   1.262   1_655  A
O119        V124   1.890       .  S
O119        C129   1.261   1_655  A
O120        V125   1.891       .  S
O120        C129   1.261       .  A
O121        V125   1.893       .  S
O121        C128   1.262       .  A
O122        V125   1.895       .  S
O122        C127   1.262       .  A
O123        V125   1.895       .  S
O123        C126   1.261       .  A
V124        V125   2.092   1_655  T
C126        C288   1.458       .  S
C127        C132   1.459       .  S
C128        C245   1.455       .  S
C129        C216   1.450       .  S
C130        C707   1.485   1_455  S
C130        C131   1.406       .  A
C130        C135   1.414       .  A
C131        C132   1.393       .  A
C131        H136   1.085   1_455  S
C132        C133   1.391       .  A
C133        C134   1.402       .  A
C133        H137   1.085       .  S
C134        C587   1.478       .  S
C134        C135   1.414       .  A
C135        H138   1.083       .  S
O139        V147   1.889       .  S
O139        C149   1.261       .  A
O140        V147   1.887       .  S
O140        C150   1.261   1_545  A
O141        V147   1.893       .  S
O141        C151   1.262   1_545  A
O142        V147   1.895       .  S
O142        C152   1.262   1_545  A
O143        V148   1.893       .  S
O143        C152   1.262       .  A
O144        V148   1.892       .  S
O144        C151   1.261       .  A
O145        V148   1.893       .  S
O145        C150   1.261       .  A
O146        V148   1.891       .  S
O146        C149   1.261   1_565  A
V147        V148   2.091   1_545  T
C149        C297   1.450       .  S
C150        C157   1.450       .  S
C151        C236   1.454       .  S
C152        C207   1.456       .  S
C153        C627   1.477       .  S
C153        C154   1.413       .  A
C153        C158   1.402       .  A
C154        C155   1.413   1_565  A
C154        H159   1.082   1_565  S
C155        C667   1.476       .  S
C155        C156   1.400       .  A
C156        C157   1.388   1_545  A
C156        H160   1.085       .  S
C157        C158   1.390       .  A
C158        H161   1.085       .  S
C162        C354   1.560       .  S
C162        C367   1.560   1_545  S
C162        C377   1.560   1_545  S
C162        C387   1.557       .  S
O163        V171   1.891       .  S
O163        C173   1.262       .  A
O164        V171   1.893   1_665  S
O164        C174   1.261       .  A
O165        V171   1.893   1_655  S
O165        C175   1.262       .  A
O166        V171   1.892   1_565  S
O166        C176   1.261       .  A
O167        V172   1.890   1_565  S
O167        C176   1.262       .  A
O168        V172   1.893   1_655  S
O168        C175   1.262       .  A
O169        V172   1.890   1_665  S
O169        C174   1.262       .  A
O170        V172   1.891       .  S
O170        C173   1.261       .  A
V171        V172   2.088       .  T
C173        C227   1.451       .  S
C174        C181   1.452       .  S
C175        C189   1.454       .  S
C176        C200   1.452       .  S
C177        C607   1.483       .  S
C177        C178   1.415       .  A
C177        C182   1.402       .  A
C178        C179   1.415       .  A
C178        H183   1.083       .  S
C179        C567   1.478       .  S
C179        C180   1.402       .  A
C180        C181   1.390       .  A
C180        H184   1.085       .  S
C181        C182   1.388       .  A
C182        H185   1.085       .  S
C186        C314   1.559       .  S
C186        C324   1.559   1_455  S
C186        C334   1.553       .  S
C186        C347   1.562       .  S
C187        C597   1.478       .  S
C187        C188   1.402       .  A
C187        C192   1.413       .  A
C188        C189   1.391       .  A
C188        H193   1.085       .  S
C189        C190   1.390       .  A
C190        C191   1.401       .  A
C190        H194   1.085       .  S
C191        C327   1.479       .  S
C191        C192   1.413       .  A
C192        H195   1.083       .  S
C196        C557   1.485       .  S
C196        C197   1.417       .  A
C196        C201   1.403       .  A
C197        C198   1.417       .  A
C197        H202   1.082       .  S
C198        C364   1.482       .  S
C198        C199   1.402       .  A
C199        C200   1.388       .  A
C199        H203   1.085       .  S
C200        C201   1.387       .  A
C201        H204   1.085       .  S
C205        C657   1.478       .  S
C205        C206   1.402       .  A
C205        C210   1.413       .  A
C206        C207   1.391       .  A
C206        H211   1.085       .  S
C207        C208   1.391       .  A
C208        C209   1.403       .  A
C208        H212   1.085       .  S
C209        C374   1.479       .  S
C209        C210   1.413       .  A
C210        H213   1.083       .  S
C214        C697   1.470       .  S
C214        C215   1.400       .  A
C214        C219   1.411       .  A
C215        C216   1.390       .  A
C215        H220   1.085       .  S
C216        C217   1.389       .  A
C217        C218   1.401       .  A
C217        H221   1.085       .  S
C218        C337   1.474       .  S
C218        C219   1.410       .  A
C219        H222   1.083       .  S
C223        C317   1.479       .  S
C223        C224   1.415       .  A
C223        C228   1.401       .  A
C224        C225   1.415       .  A
C224        H229   1.083       .  S
C225        C357   1.481       .  S
C225        C226   1.402       .  A
C226        C227   1.389       .  A
C226        H230   1.085       .  S
C227        C228   1.388       .  A
C228        H231   1.085       .  S
C232        C617   1.486       .  S
C232        C233   1.416   1_545  A
C232        C237   1.405       .  A
C233        C234   1.416       .  A
C233        H238   1.083       .  S
C234        C427   1.481       .  S
C234        C235   1.402       .  A
C235        C236   1.389       .  A
C235        H239   1.085       .  S
C236        C237   1.389   1_565  A
C237        H240   1.085       .  S
C241        C507   1.475       .  S
C241        C242   1.413       .  A
C241        C246   1.402       .  A
C242        C243   1.413       .  A
C242        H247   1.083       .  S
C243        C574   1.480   1_455  S
C243        C244   1.403       .  A
C244        C245   1.390       .  A
C244        H248   1.085       .  S
C245        C246   1.391       .  A
C246        H249   1.085       .  S
C250        C457   1.477       .  S
C250        C251   1.414       .  A
C250        C255   1.401       .  A
C251        C252   1.414   1_556  A
C251        H256   1.083   1_556  S
C252        C777   1.480       .  S
C252        C253   1.402       .  A
C253        C254   1.389   1_554  A
C253        H257   1.085       .  S
C254        C255   1.390       .  A
C255        H258   1.085       .  S
C259        C397   1.477       .  S
C259        C260   1.401       .  A
C259        C264   1.412       .  A
C260        C261   1.389       .  A
C260        H265   1.085       .  S
C261        C262   1.390       .  A
C262        C263   1.400       .  A
C262        H266   1.085       .  S
C263        C437   1.473       .  S
C263        C264   1.413       .  A
C264        H267   1.083       .  S
C268        C537   1.478       .  S
C268        C269   1.412       .  A
C268        C273   1.403       .  A
C269        C270   1.412       .  A
C269        H274   1.083       .  S
C270        C737   1.474       .  S
C270        C271   1.401       .  A
C271        C272   1.391       .  A
C271        H275   1.085       .  S
C272        C273   1.391       .  A
C273        H276   1.085       .  S
C277        C477   1.487       .  S
C277        C278   1.403       .  A
C277        C282   1.418       .  A
C278        C279   1.386       .  A
C278        H283   1.085       .  S
C279        C280   1.388       .  A
C280        C281   1.403       .  A
C280        H284   1.085       .  S
C281        C514   1.484       .  S
C281        C282   1.419       .  A
C282        H285   1.082       .  S
C286        C497   1.485   1_455  S
C286        C287   1.405       .  A
C286        C291   1.415   1_455  A
C287        C288   1.389       .  A
C287        H292   1.085       .  S
C288        C289   1.391       .  A
C289        C290   1.404       .  A
C289        H293   1.085       .  S
C290        C344   1.480   1_455  S
C290        C291   1.416   1_455  A
C291        H294   1.083       .  S
C295        C414   1.477       .  S
C295        C296   1.401       .  A
C295        C300   1.414       .  A
C296        C297   1.389       .  A
C296        H301   1.085       .  S
C297        C298   1.388       .  A
C298        C299   1.400       .  A
C298        H302   1.085       .  S
C299        C384   1.477       .  S
C299        C300   1.414       .  A
C300        H303   1.082       .  S
C304        C544   1.479       .  S
C304        C305   1.402       .  A
C304        C309   1.413       .  A
C305        C306   1.389       .  A
C305        H310   1.085       .  S
C306        C307   1.390   1_556  A
C307        C308   1.401       .  A
C307        H311   1.085       .  S
C308        C467   1.476       .  S
C308        C309   1.413   1_554  A
C309        H312   1.083       .  S
C313        C314   1.413       .  A
C313        C318   1.395       .  A
C313        H320   1.082       .  S
C314        C315   1.426       .  A
C315        C316   1.402       .  A
C315        F322   1.355       .  S
C316        C317   1.398       .  A
C316        H321   1.083       .  S
C317        C318   1.402       .  A
C318        F319   1.358       .  S
C323        C324   1.418       .  A
C323        C328   1.402       .  A
C323        H330   1.080       .  S
C324        C325   1.418       .  A
C325        C326   1.396       .  A
C325        F332   1.356       .  S
C326        C327   1.400       .  A
C326        H331   1.084       .  S
C327        C328   1.401       .  A
C328        F329   1.357       .  S
C333        C334   1.418   1_655  A
C333        C338   1.402       .  A
C333        H340   1.080       .  S
C334        C335   1.417       .  A
C335        C336   1.391       .  A
C335        F342   1.357       .  S
C336        C337   1.398       .  A
C336        H341   1.084       .  S
C337        C338   1.400   1_455  A
C338        F339   1.357       .  S
C343        C344   1.400       .  A
C343        C348   1.396       .  A
C343        H350   1.083       .  S
C344        C345   1.401   1_655  A
C345        C346   1.404       .  A
C345        F352   1.357       .  S
C346        C347   1.419       .  A
C346        H351   1.080       .  S
C347        C348   1.419   1_455  A
C348        F349   1.357       .  S
C353        C354   1.414       .  A
C353        C358   1.395       .  A
C353        H360   1.082       .  S
C354        C355   1.425       .  A
C355        C356   1.403       .  A
C355        F362   1.355       .  S
C356        C357   1.399       .  A
C356        H361   1.083       .  S
C357        C358   1.403       .  A
C358        F359   1.358       .  S
C363        C364   1.401       .  A
C363        C368   1.395       .  A
C363        H370   1.083       .  S
C364        C365   1.402       .  A
C365        C366   1.404       .  A
C365        F372   1.357       .  S
C366        C367   1.419       .  A
C366        H371   1.080       .  S
C367        C368   1.417       .  A
C368        F369   1.356       .  S
C373        C374   1.400       .  A
C373        C378   1.394       .  A
C373        H380   1.084       .  S
C374        C375   1.401   1_565  A
C375        C376   1.404       .  A
C375        F382   1.357       .  S
C376        C377   1.419   1_545  A
C376        H381   1.080       .  S
C377        C378   1.418       .  A
C378        F379   1.357       .  S
C383        C384   1.400       .  A
C383        C388   1.394       .  A
C383        H390   1.084       .  S
C384        C385   1.400   1_545  A
C385        C386   1.403       .  A
C385        F392   1.357       .  S
C386        C387   1.419   1_565  A
C386        H391   1.080       .  S
C387        C388   1.417       .  A
C388        F389   1.357       .  S
C393        C394   1.419       .  A
C393        C398   1.403       .  A
C393        H400   1.080       .  S
C394        C395   1.417       .  A
C395        C396   1.393       .  A
C395        F402   1.357       .  S
C396        C397   1.400       .  A
C396        H401   1.084       .  S
C397        C398   1.401       .  A
C398        F399   1.357       .  S
C403        C404   1.419       .  A
C403        C408   1.404       .  A
C403        H410   1.079       .  S
C404        C405   1.418       .  A
C405        C406   1.395       .  A
C405        F412   1.357       .  S
C406        C407   1.401       .  A
C406        H411   1.083       .  S
C407        C408   1.401       .  A
C408        F409   1.357       .  S
C413        C414   1.398   1_565  A
C413        C418   1.403       .  A
C413        H420   1.083       .  S
C414        C415   1.402       .  A
C415        C416   1.395       .  A
C415        F422   1.358       .  S
C416        C417   1.414       .  A
C416        H421   1.082       .  S
C417        C418   1.425   1_545  A
C418        F419   1.355       .  S
C423        C424   1.413       .  A
C423        C428   1.395       .  A
C423        H430   1.082       .  S
C424        C425   1.426   1_565  A
C425        C426   1.403       .  A
C425        F432   1.355       .  S
C426        C427   1.399   1_545  A
C426        H431   1.083       .  S
C427        C428   1.403       .  A
C428        F429   1.358       .  S
C433        C434   1.414       .  A
C433        C438   1.396       .  A
C433        H440   1.081       .  S
C434        C435   1.424       .  A
C435        C436   1.400       .  A
C435        F442   1.356       .  S
C436        C437   1.397       .  A
C436        H441   1.084       .  S
C437        C438   1.400       .  A
C438        F439   1.358       .  S
C443        C444   1.415       .  A
C443        C448   1.398       .  A
C443        H450   1.081       .  S
C444        C445   1.424       .  A
C445        C446   1.401       .  A
C445        F452   1.356       .  S
C446        C447   1.398       .  A
C446        H451   1.083       .  S
C447        C448   1.401       .  A
C448        F449   1.358       .  S
C453        C454   1.415       .  A
C453        C458   1.396       .  A
C453        H460   1.081       .  S
C454        C455   1.423   1_556  A
C455        C456   1.402       .  A
C455        F462   1.356       .  S
C456        C457   1.399   1_554  A
C456        H461   1.083       .  S
C457        C458   1.401       .  A
C458        F459   1.358       .  S
C463        C464   1.415       .  A
C463        C468   1.395       .  A
C463        H470   1.081       .  S
C464        C465   1.422   1_554  A
C465        C466   1.402       .  A
C465        F472   1.356       .  S
C466        C467   1.399   1_556  A
C466        H471   1.083       .  S
C467        C468   1.400       .  A
C468        F469   1.358       .  S
C473        C474   1.414       .  A
C473        C478   1.390       .  A
C473        H480   1.073       .  S
C474        C475   1.426       .  A
C475        C476   1.412       .  A
C475        F482   1.354       .  S
C476        C477   1.402       .  A
C476        H481   1.082       .  S
C477        C478   1.400       .  A
C478        F479   1.359       .  S
C483        C484   1.418       .  A
C483        C488   1.396       .  A
C483        H490   1.079       .  S
C484        C485   1.430       .  A
C485        C486   1.401       .  A
C485        F492   1.355       .  S
C486        C487   1.397       .  A
C486        H491   1.083       .  S
C487        C488   1.398       .  A
C488        F489   1.358       .  S
C493        C494   1.415       .  A
C493        C498   1.389       .  A
C493        H500   1.075       .  S
C494        C495   1.423   1_655  A
C495        C496   1.413       .  A
C495        F502   1.355       .  S
C496        C497   1.403   1_455  A
C496        H501   1.082       .  S
C497        C498   1.400       .  A
C498        F499   1.359       .  S
C503        C504   1.421   1_655  A
C503        C508   1.400       .  A
C503        H510   1.079       .  S
C504        C505   1.423       .  A
C505        C506   1.397       .  A
C505        F512   1.353       .  S
C506        C507   1.396       .  A
C506        H511   1.084       .  S
C507        C508   1.398   1_455  A
C508        F509   1.358       .  S
C513        C514   1.402       .  A
C513        C518   1.396       .  A
C513        H520   1.083       .  S
C514        C515   1.402       .  A
C515        C516   1.404       .  A
C515        F522   1.357       .  S
C516        C517   1.420       .  A
C516        H521   1.080       .  S
C517        C518   1.416       .  A
C518        F519   1.356       .  S
C523        C524   1.413       .  A
C523        C528   1.395       .  A
C523        H530   1.083       .  S
C524        C525   1.426       .  A
C525        C526   1.404       .  A
C525        F532   1.355       .  S
C526        C527   1.399       .  A
C526        H531   1.083       .  S
C527        C528   1.403       .  A
C528        F529   1.358       .  S
C533        C534   1.419   1_556  A
C533        C538   1.404       .  A
C533        H540   1.080       .  S
C534        C535   1.418       .  A
C535        C536   1.393       .  A
C535        F542   1.357       .  S
C536        C537   1.399       .  A
C536        H541   1.083       .  S
C537        C538   1.401   1_554  A
C538        F539   1.357       .  S
C543        C544   1.400       .  A
C543        C548   1.394       .  A
C543        H550   1.084       .  S
C544        C545   1.402   1_556  A
C545        C546   1.403       .  A
C545        F552   1.357       .  S
C546        C547   1.418   1_554  A
C546        H551   1.080       .  S
C547        C548   1.418       .  A
C548        F549   1.357       .  S
C553        C554   1.416       .  A
C553        C558   1.390       .  A
C553        H560   1.078       .  S
C554        C555   1.428       .  A
C555        C556   1.410       .  A
C555        F562   1.352       .  S
C556        C557   1.400       .  A
C556        H561   1.083       .  S
C557        C558   1.400       .  A
C558        F559   1.358       .  S
C563        C564   1.420       .  A
C563        C568   1.402       .  A
C563        H570   1.077       .  S
C564        C565   1.422       .  A
C565        C566   1.397       .  A
C565        F572   1.356       .  S
C566        C567   1.398       .  A
C566        H571   1.084       .  S
C567        C568   1.399       .  A
C568        F569   1.358       .  S
C573        C574   1.396       .  A
C573        C578   1.391       .  A
C573        H580   1.084       .  S
C574        C575   1.402   1_655  A
C575        C576   1.408       .  A
C575        F582   1.357       .  S
C576        C577   1.415   1_455  A
C576        H581   1.070       .  S
C577        C578   1.422       .  A
C578        F579   1.353       .  S
C583        C584   1.422   1_655  A
C583        C588   1.402       .  A
C583        H590   1.075       .  S
C584        C585   1.423       .  A
C585        C586   1.396       .  A
C585        F592   1.353       .  S
C586        C587   1.396       .  A
C586        H591   1.084       .  S
C587        C588   1.399   1_455  A
C588        F589   1.358       .  S
C593        C594   1.421       .  A
C593        C598   1.401       .  A
C593        H600   1.077       .  S
C594        C595   1.423       .  A
C595        C596   1.398       .  A
C595        F602   1.355       .  S
C596        C597   1.397       .  A
C596        H601   1.084       .  S
C597        C598   1.398       .  A
C598        F599   1.358       .  S
C603        C604   1.417       .  A
C603        C608   1.390       .  A
C603        H610   1.078       .  S
C604        C605   1.428       .  A
C605        C606   1.409       .  A
C605        F612   1.352       .  S
C606        C607   1.400       .  A
C606        H611   1.083       .  S
C607        C608   1.399       .  A
C608        F609   1.358       .  S
C613        C614   1.415   1_565  A
C613        C618   1.409       .  A
C613        H620   1.071       .  S
C614        C615   1.421       .  A
C615        C616   1.392       .  A
C615        F622   1.354       .  S
C616        C617   1.398       .  A
C616        H621   1.084       .  S
C617        C618   1.403   1_545  A
C618        F619   1.357       .  S
C623        C624   1.421   1_545  A
C623        C628   1.402       .  A
C623        H630   1.075       .  S
C624        C625   1.422       .  A
C625        C626   1.395       .  A
C625        F632   1.353       .  S
C626        C627   1.396       .  A
C626        H631   1.084       .  S
C627        C628   1.398   1_565  A
C628        F629   1.358       .  S
C633        C634   1.415       .  A
C633        C638   1.394       .  A
C633        H640   1.082       .  S
C634        C635   1.425       .  A
C635        C636   1.404       .  A
C635        F642   1.355       .  S
C636        C637   1.399       .  A
C636        H641   1.083       .  S
C637        C638   1.401       .  A
C638        F639   1.358       .  S
C643        C644   1.419       .  A
C643        C648   1.401       .  A
C643        H650   1.080       .  S
C644        C645   1.417       .  A
C645        C646   1.392       .  A
C645        F652   1.356       .  S
C646        C647   1.398       .  A
C646        H651   1.083       .  S
C647        C648   1.400       .  A
C648        F649   1.357       .  S
C653        C654   1.419   1_545  A
C653        C658   1.403       .  A
C653        H660   1.080       .  S
C654        C655   1.418       .  A
C655        C656   1.395       .  A
C655        F662   1.356       .  S
C656        C657   1.399       .  A
C656        H661   1.084       .  S
C657        C658   1.401   1_565  A
C658        F659   1.357       .  S
C663        C664   1.413       .  A
C663        C668   1.394       .  A
C663        H670   1.083       .  S
C664        C665   1.425   1_545  A
C665        C666   1.401       .  A
C665        F672   1.355       .  S
C666        C667   1.398   1_565  A
C666        H671   1.083       .  S
C667        C668   1.402       .  A
C668        F669   1.358       .  S
C673        C674   1.415       .  A
C673        C678   1.390       .  A
C673        H680   1.068       .  S
C674        C675   1.426       .  A
C675        C676   1.413       .  A
C675        F682   1.355       .  S
C676        C677   1.403       .  A
C676        H681   1.082       .  S
C677        C678   1.399       .  A
C678        F679   1.358       .  S
C683        C684   1.418       .  A
C683        C688   1.397       .  A
C683        H690   1.082       .  S
C684        C685   1.429       .  A
C685        C686   1.399       .  A
C685        F692   1.356       .  S
C686        C687   1.396       .  A
C686        H691   1.084       .  S
C687        C688   1.399       .  A
C688        F689   1.358       .  S
C693        C694   1.418       .  A
C693        C698   1.395       .  A
C693        H700   1.080       .  S
C694        C695   1.429   1_455  A
C695        C696   1.399       .  A
C695        F702   1.353       .  S
C696        C697   1.394   1_655  A
C696        H701   1.084       .  S
C697        C698   1.397       .  A
C698        F699   1.358       .  S
C703        C704   1.416   1_455  A
C703        C708   1.412       .  A
C703        H710   1.073       .  S
C704        C705   1.421       .  A
C705        C706   1.392       .  A
C705        F712   1.349       .  S
C706        C707   1.395       .  A
C706        H711   1.083       .  S
C707        C708   1.404   1_655  A
C708        F709   1.357       .  S
C713        C714   1.415       .  A
C713        C718   1.389       .  A
C713        H720   1.073       .  S
C714        C715   1.425       .  A
C715        C716   1.412       .  A
C715        F722   1.354       .  S
C716        C717   1.402       .  A
C716        H721   1.082       .  S
C717        C718   1.399       .  A
C718        F719   1.358       .  S
C723        C724   1.418       .  A
C723        C728   1.395       .  A
C723        H730   1.079       .  S
C724        C725   1.430       .  A
C725        C726   1.400       .  A
C725        F732   1.355       .  S
C726        C727   1.395       .  A
C726        H731   1.083       .  S
C727        C728   1.397       .  A
C728        F729   1.358       .  S
C733        C734   1.421   1_556  A
C733        C738   1.399       .  A
C733        H740   1.079       .  S
C734        C735   1.422       .  A
C735        C736   1.397       .  A
C735        F742   1.353       .  S
C736        C737   1.397       .  A
C736        H741   1.084       .  S
C737        C738   1.397   1_554  A
C738        F739   1.357       .  S
C743        C744   1.416       .  A
C743        C748   1.388       .  A
C743        H750   1.075       .  S
C744        C745   1.423   1_556  A
C745        C746   1.413       .  A
C745        F752   1.355       .  S
C746        C747   1.403   1_554  A
C746        H751   1.082       .  S
C747        C748   1.399       .  A
C748        F749   1.359       .  S
C753        C754   1.419       .  A
C753        C758   1.402       .  A
C753        H760   1.080       .  S
C754        C755   1.418       .  A
C755        C756   1.395       .  A
C755        F762   1.356       .  S
C756        C757   1.400       .  A
C756        H761   1.083       .  S
C757        C758   1.401       .  A
C758        F759   1.357       .  S
C763        C764   1.414       .  A
C763        C768   1.394       .  A
C763        H770   1.083       .  S
C764        C765   1.425       .  A
C765        C766   1.402       .  A
C765        F772   1.355       .  S
C766        C767   1.398       .  A
C766        H771   1.083       .  S
C767        C768   1.402       .  A
C768        F769   1.358       .  S
C773        C774   1.419   1_556  A
C773        C778   1.403       .  A
C773        H780   1.080       .  S
C774        C775   1.418       .  A
C775        C776   1.394       .  A
C775        F782   1.357       .  S
C776        C777   1.400       .  A
C776        H781   1.084       .  S
C777        C778   1.402   1_554  A
C778        F779   1.357       .  S
C783        C784   1.401       .  A
C783        C788   1.394       .  A
C783        H790   1.083       .  S
C784        C785   1.400   1_556  A
C785        C786   1.403       .  A
C785        F792   1.357       .  S
C786        C787   1.418   1_554  A
C786        H791   1.080       .  S
C787        C788   1.417       .  A
C788        F789   1.357       .  S
