geometry optimzed in LAMMPS
_audit_creation_date              2020-12-01 
_audit_creation_method            'lammps2cif' 
_symmetry_space_group_name_H-M    'P1' 
_symmetry_Int_Tables_number       1 
_symmetry_cell_setting            triclinic 
loop_ 
_symmetry_equiv_pos_as_xyz 
  x,y,z 
_cell_length_a                    20.11318061 
_cell_length_b                    26.852227833810293 
_cell_length_c                    20.42512002448321 
_cell_angle_alpha                 90.00035370910102 
_cell_angle_beta                  93.14909059507205 
_cell_angle_gamma                 89.99903477957278 
loop_ 
_atom_site_label 
_atom_site_type_symbol 
_atom_site_fract_x 
_atom_site_fract_y 
_atom_site_fract_z 
_atom_site_charge 
C1          C  0.07371136  0.81816076  0.18917636     0.05500
C2          C  0.08073884  0.70152394  0.05708647     0.05500
C3          C  0.24741817  0.81815790  0.30708952     0.05500
C4          C  0.24036534  0.70152027  0.43917343     0.05500
C5          C  0.07365403  0.20152388  0.18919374     0.05500
C6          C  0.08067864  0.31816083  0.05710597     0.05500
C7          C  0.24736091  0.20152024  0.30710695     0.05500
C8          C  0.24030509  0.31815783  0.43919277     0.05500
O9          O  0.17961166  0.45966404  0.16700516    -0.63800
O10         O  0.23865419  0.56004220  0.28754738    -0.64100
O11         O  0.23863086  0.45962048  0.28755313    -0.63900
O12         O  0.17963489  0.56000458  0.16699934    -0.63900
O13         O  0.08240246  0.56006109  0.20872677    -0.63900
O14         O  0.14139870  0.45967645  0.32928107    -0.63900
O15         O  0.14142203  0.56001766  0.32927531    -0.63800
O16         O  0.08237910  0.45963911  0.20873236    -0.64000
V17         V  0.20723489  0.50983310  0.22807046     1.35200
V18         V  0.11379828  0.50984828  0.26820980     1.35200
C19         C  0.12142928  0.44216234  0.16821236     0.85400
C20         C  0.19960443  0.57751922  0.32806764     0.85500
C21         C  0.19957317  0.44215828  0.32807550     0.85300
C22         C  0.12146067  0.57752296  0.16820467     0.85300
O23         O  0.24907192  0.06004467  0.45873320    -0.63800
O24         O  0.30811164  0.95966648  0.07927705    -0.64100
O25         O  0.30809127  0.06000701  0.07928102    -0.63900
O26         O  0.24909244  0.95962291  0.45872906    -0.63900
O27         O  0.01299137  0.95967413  0.41700114    -0.63900
O28         O  0.07199035  0.06005873  0.03755363    -0.63900
O29         O  0.07201090  0.95963657  0.03754973    -0.63800
O30         O  0.01297067  0.06001529  0.41700520    -0.64000
V31         V  0.28048980  0.00983544  0.01821082     1.35200
V32         V  0.04059311  0.00984605  0.47807152     1.35200
C33         C  0.28812199  0.07751931  0.41821266     0.85400
C34         C  0.03296014  0.94216237  0.07806997     0.85500
C35         C  0.03293264  0.07752296  0.07807545     0.85300
C36         C  0.28814962  0.94215837  0.41820705     0.85300
C37         C  0.23188965  0.36480680  0.40251628    -0.05300
C38         C  0.21970690  0.40154022  0.37011037    -0.06900
C39         C  0.25577961  0.15486975  0.34377980    -0.05300
C40         C  0.26797168  0.11813598  0.37618224    -0.06900
C41         C  0.24267160  0.27663404  0.39271801    -0.05300
C42         C  0.24499520  0.24304226  0.35358449    -0.06900
C43         C  0.08909330  0.36481145  0.09377895    -0.05300
C44         C  0.10128012  0.40154552  0.12618217    -0.06900
C45         C  0.30198484  0.31960649  0.48068377    -0.05300
C46         C  0.01899517  0.31960682  0.01562006    -0.06900
C47         C  0.18379414  0.31221547  0.48077331    -0.05300
C48         C  0.13718601  0.31221709  0.01552080    -0.06900
C49         C  0.05306519  0.11814119  0.12011017    -0.05300
C50         C  0.06524261  0.15487482  0.15251686    -0.06900
C51         C  0.18567985  0.20007323  0.26561766    -0.05300
C52         C  0.13533619  0.20007607  0.23068143    -0.06900
C53         C  0.30387015  0.20746504  0.26552488    -0.05300
C54         C  0.01714487  0.20746502  0.23077726    -0.06900
C55         C  0.07601141  0.24304768  0.14271869    -0.05300
C56         C  0.07832240  0.27663888  0.10358405    -0.06900
C57         C  0.21975592  0.61813602  0.37009756    -0.05300
C58         C  0.23194801  0.65486971  0.40249996    -0.06900
C59         C  0.25583204  0.86480690  0.34376670    -0.05300
C60         C  0.26801491  0.90154024  0.37617258    -0.06900
C61         C  0.24272978  0.74304226  0.39269645    -0.05300
C62         C  0.24505292  0.77663406  0.35356354    -0.06900
C63         C  0.10132920  0.61814126  0.12616949    -0.05300
C64         C  0.08915180  0.65487488  0.09376277    -0.06900
C65         C  0.30204627  0.70007316  0.48066272    -0.05300
C66         C  0.01905681  0.70007624  0.01559899    -0.06900
C67         C  0.18385577  0.70746518  0.48075561    -0.05300
C68         C  0.13724760  0.70746500  0.01550303    -0.06900
C69         C  0.06529520  0.86481153  0.15250398    -0.05300
C70         C  0.05310834  0.90154539  0.12010093    -0.06900
C71         C  0.13539476  0.81960653  0.23066216    -0.05300
C72         C  0.18573834  0.81960663  0.26559844    -0.06900
C73         C  0.01720432  0.81221727  0.23076142    -0.05300
C74         C  0.30392931  0.81221548  0.26550896    -0.06900
C75         C  0.07606882  0.77663889  0.14269747    -0.05300
C76         C  0.07838029  0.74304778  0.10356224    -0.08100
C77         C  0.07371136  0.81816084  0.68917632     0.05500
C78         C  0.08073879  0.70152392  0.55708665     0.05500
C79         C  0.24741817  0.81815790  0.80708953     0.05500
C80         C  0.24036526  0.70152017  0.93917338     0.05500
C81         C  0.07365401  0.20152396  0.68919373     0.05500
C82         C  0.08067863  0.31816074  0.55710600     0.05500
C83         C  0.24736085  0.20152031  0.80710693     0.05500
C84         C  0.24030510  0.31815785  0.93919276     0.05500
O85         O  0.17961168  0.45966406  0.66700518    -0.63800
O86         O  0.23865417  0.56004228  0.78754737    -0.64100
O87         O  0.23863088  0.45962057  0.78755322    -0.63900
O88         O  0.17963488  0.56000453  0.66699934    -0.63900
O89         O  0.08240248  0.56006114  0.70872689    -0.63900
O90         O  0.14139868  0.45967641  0.82928105    -0.63900
O91         O  0.14142201  0.56001770  0.82927533    -0.63800
O92         O  0.08237915  0.45963902  0.70873240    -0.64000
V93         V  0.20723487  0.50983317  0.72807047     1.35200
V94         V  0.11379826  0.50984830  0.76820982     1.35200
C95         C  0.12142929  0.44216230  0.66821244     0.85400
C96         C  0.19960443  0.57751926  0.82806769     0.85500
C97         C  0.19957319  0.44215846  0.82807529     0.85300
C98         C  0.12146059  0.57752306  0.66820460     0.85300
O99         O  0.24907187  0.06004456  0.95873304    -0.63800
O100        O  0.30811167  0.95966659  0.57927708    -0.64100
O101        O  0.30809132  0.06000699  0.57928117    -0.63900
O102        O  0.24909241  0.95962293  0.95872891    -0.63900
O103        O  0.01299147  0.95967396  0.91700123    -0.63900
O104        O  0.07199033  0.06005885  0.53755365    -0.63900
O105        O  0.07201092  0.95963675  0.53754968    -0.63800
O106        O  0.01297067  0.06001524  0.91700518    -0.64000
V107        V  0.28048983  0.00983549  0.51821092     1.35200
V108        V  0.04059313  0.00984593  0.97807153     1.35200
C109        C  0.28812213  0.07751916  0.91821250     0.85400
C110        C  0.03296022  0.94216235  0.57807008     0.85500
C111        C  0.03293268  0.07752293  0.57807550     0.85300
C112        C  0.28814958  0.94215828  0.91820701     0.85300
C113        C  0.23188964  0.36480691  0.90251602    -0.05300
C114        C  0.21970699  0.40154015  0.87011039    -0.06900
C115        C  0.25577963  0.15486971  0.84377977    -0.05300
C116        C  0.26797164  0.11813597  0.87618202    -0.06900
C117        C  0.24267162  0.27663399  0.89271816    -0.05300
C118        C  0.24499520  0.24304221  0.85358463    -0.06900
C119        C  0.08909328  0.36481143  0.59377895    -0.05300
C120        C  0.10128019  0.40154545  0.62618211    -0.06900
C121        C  0.30198484  0.31960664  0.98068375    -0.05300
C122        C  0.01899516  0.31960668  0.51562008    -0.06900
C123        C  0.18379414  0.31221556  0.98077328    -0.05300
C124        C  0.13718602  0.31221709  0.51552082    -0.06900
C125        C  0.05306517  0.11814125  0.62011028    -0.05300
C126        C  0.06524256  0.15487482  0.65251684    -0.06900
C127        C  0.18567983  0.20007335  0.76561774    -0.05300
C128        C  0.13533603  0.20007618  0.73068145    -0.06900
C129        C  0.30387019  0.20746516  0.76552486    -0.05300
C130        C  0.01714477  0.20746514  0.73077724    -0.06900
C131        C  0.07601141  0.24304762  0.64271872    -0.05300
C132        C  0.07832246  0.27663895  0.60358397    -0.06900
C133        C  0.21975595  0.61813591  0.87009771    -0.05300
C134        C  0.23194798  0.65486959  0.90250010    -0.06900
C135        C  0.25583207  0.86480684  0.84376670    -0.05300
C136        C  0.26801492  0.90154026  0.87617259    -0.06900
C137        C  0.24272964  0.74304213  0.89269617    -0.05300
C138        C  0.24505279  0.77663394  0.85356350    -0.06900
C139        C  0.10132925  0.61814113  0.62616958    -0.05300
C140        C  0.08915169  0.65487494  0.59376275    -0.06900
C141        C  0.30204621  0.70007309  0.98066267    -0.05300
C142        C  0.01905663  0.70007634  0.51559905    -0.06900
C143        C  0.18385576  0.70746526  0.98075540    -0.05300
C144        C  0.13724763  0.70746489  0.51550308    -0.06900
C145        C  0.06529520  0.86481144  0.65250396    -0.05300
C146        C  0.05310830  0.90154551  0.62010065    -0.06900
C147        C  0.13539478  0.81960666  0.73066220    -0.05300
C148        C  0.18573834  0.81960674  0.76559846    -0.06900
C149        C  0.01720431  0.81221731  0.73076148    -0.05300
C150        C  0.30392933  0.81221544  0.76550900    -0.06900
C151        C  0.07606886  0.77663896  0.64269762    -0.05300
C152        C  0.07838033  0.74304772  0.60356230    -0.08100
C153        C  0.40704464  0.81816076  0.18917641     0.05500
C154        C  0.41407212  0.70152394  0.05708646     0.05500
C155        C  0.58075154  0.81815788  0.30708945     0.05500
C156        C  0.57369859  0.70152026  0.43917339     0.05500
C157        C  0.40698737  0.20152386  0.18919371     0.05500
C158        C  0.41401192  0.31816083  0.05710593     0.05500
C159        C  0.58069418  0.20152023  0.30710698     0.05500
C160        C  0.57363846  0.31815783  0.43919274     0.05500
O161        O  0.51294497  0.45966405  0.16700521    -0.63800
O162        O  0.57198759  0.56004219  0.28754744    -0.64100
O163        O  0.57196428  0.45962049  0.28755320    -0.63900
O164        O  0.51296821  0.56000456  0.16699938    -0.63900
O165        O  0.41573572  0.56006109  0.20872675    -0.63900
O166        O  0.47473202  0.45967647  0.32928101    -0.63900
O167        O  0.47475534  0.56001765  0.32927525    -0.63800
O168        O  0.41571237  0.45963911  0.20873236    -0.64000
V169        V  0.54056830  0.50983311  0.22807048     1.35200
V170        V  0.44713162  0.50984827  0.26820977     1.35200
C171        C  0.45476290  0.44216236  0.16821230     0.85400
C172        C  0.53293800  0.57751926  0.32806762     0.85500
C173        C  0.53290672  0.44215827  0.32807547     0.85300
C174        C  0.45479394  0.57752297  0.16820466     0.85300
O175        O  0.58240528  0.06004469  0.45873320    -0.63800
O176        O  0.64144516  0.95966646  0.07927704    -0.64100
O177        O  0.64142444  0.06000697  0.07928105    -0.63900
O178        O  0.58242576  0.95962291  0.45872905    -0.63900
O179        O  0.34632462  0.95967413  0.41700114    -0.63900
O180        O  0.40532376  0.06005869  0.03755367    -0.63900
O181        O  0.40534415  0.95963654  0.03754976    -0.63800
O182        O  0.34630411  0.06001532  0.41700524    -0.64000
V183        V  0.61382314  0.00983543  0.01821083     1.35200
V184        V  0.37392646  0.00984604  0.47807154     1.35200
C185        C  0.62145518  0.07751933  0.41821270     0.85400
C186        C  0.36629334  0.94216235  0.07806998     0.85500
C187        C  0.36626588  0.07752298  0.07807550     0.85300
C188        C  0.62148313  0.94215838  0.41820702     0.85300
C189        C  0.56522295  0.36480676  0.40251630    -0.05300
C190        C  0.55304016  0.40154024  0.37011036    -0.06900
C191        C  0.58911287  0.15486977  0.34377979    -0.05300
C192        C  0.60130509  0.11813598  0.37618225    -0.06900
C193        C  0.57600517  0.27663406  0.39271803    -0.05300
C194        C  0.57832868  0.24304226  0.35358450    -0.06900
C195        C  0.42242682  0.36481146  0.09377895    -0.05300
C196        C  0.43461362  0.40154547  0.12618217    -0.06900
C197        C  0.63531835  0.31960653  0.48068383    -0.05300
C198        C  0.35232857  0.31960687  0.01562008    -0.06900
C199        C  0.51712747  0.31221542  0.48077331    -0.05300
C200        C  0.47051936  0.31221703  0.01552073    -0.06900
C201        C  0.38639848  0.11814117  0.12011015    -0.05300
C202        C  0.39857602  0.15487482  0.15251685    -0.06900
C203        C  0.51901306  0.20007327  0.26561773    -0.05300
C204        C  0.46866950  0.20007611  0.23068142    -0.06900
C205        C  0.63720333  0.20746500  0.26552483    -0.05300
C206        C  0.35047833  0.20746499  0.23077727    -0.06900
C207        C  0.40934464  0.24304769  0.14271865    -0.05300
C208        C  0.41165561  0.27663889  0.10358403    -0.06900
C209        C  0.55308925  0.61813597  0.37009753    -0.05300
C210        C  0.56528143  0.65486974  0.40249998    -0.06900
C211        C  0.58916551  0.86480691  0.34376670    -0.05300
C212        C  0.60134828  0.90154021  0.37617255    -0.06900
C213        C  0.57606299  0.74304227  0.39269643    -0.05300
C214        C  0.57838616  0.77663407  0.35356351    -0.06900
C215        C  0.43466259  0.61814125  0.12616952    -0.05300
C216        C  0.42248511  0.65487490  0.09376275    -0.06900
C217        C  0.63537968  0.70007320  0.48066274    -0.05300
C218        C  0.35239002  0.70007624  0.01559898    -0.06900
C219        C  0.51718911  0.70746514  0.48075556    -0.05300
C220        C  0.47058083  0.70746501  0.01550302    -0.06900
C221        C  0.39862837  0.86481152  0.15250399    -0.05300
C222        C  0.38644149  0.90154538  0.12010094    -0.06900
C223        C  0.46872795  0.81960653  0.23066210    -0.05300
C224        C  0.51907183  0.81960667  0.26559840    -0.06900
C225        C  0.35053752  0.81221728  0.23076142    -0.05300
C226        C  0.63726287  0.81221544  0.26550897    -0.06900
C227        C  0.40940201  0.77663889  0.14269747    -0.05300
C228        C  0.41171352  0.74304779  0.10356225    -0.08100
C229        C  0.40704463  0.81816084  0.68917637     0.05500
C230        C  0.41407209  0.70152392  0.55708663     0.05500
C231        C  0.58075154  0.81815790  0.80708947     0.05500
C232        C  0.57369859  0.70152016  0.93917337     0.05500
C233        C  0.40698737  0.20152395  0.68919367     0.05500
C234        C  0.41401192  0.31816074  0.55710596     0.05500
C235        C  0.58069419  0.20152030  0.80710700     0.05500
C236        C  0.57363847  0.31815785  0.93919273     0.05500
O237        O  0.51294499  0.45966407  0.66700523    -0.63800
O238        O  0.57198756  0.56004228  0.78754743    -0.64100
O239        O  0.57196429  0.45962059  0.78755329    -0.63900
O240        O  0.51296812  0.56000454  0.66699937    -0.63900
O241        O  0.41573570  0.56006112  0.70872691    -0.63900
O242        O  0.47473201  0.45967643  0.82928099    -0.63900
O243        O  0.47475532  0.56001769  0.82927527    -0.63800
O244        O  0.41571242  0.45963902  0.70873241    -0.64000
V245        V  0.54056827  0.50983319  0.72807049     1.35200
V246        V  0.44713161  0.50984829  0.76820980     1.35200
C247        C  0.45476291  0.44216232  0.66821238     0.85400
C248        C  0.53293800  0.57751929  0.82806767     0.85500
C249        C  0.53290674  0.44215844  0.82807525     0.85300
C250        C  0.45479382  0.57752305  0.66820461     0.85300
O251        O  0.58240523  0.06004459  0.95873303    -0.63800
O252        O  0.64144519  0.95966657  0.57927707    -0.64100
O253        O  0.64142449  0.06000695  0.57928120    -0.63900
O254        O  0.58242573  0.95962294  0.95872890    -0.63900
O255        O  0.34632472  0.95967396  0.91700124    -0.63900
O256        O  0.40532374  0.06005881  0.53755369    -0.63900
O257        O  0.40534417  0.95963672  0.53754971    -0.63800
O258        O  0.34630410  0.06001527  0.91700522    -0.64000
V259        V  0.61382316  0.00983547  0.51821092     1.35200
V260        V  0.37392648  0.00984592  0.97807155     1.35200
C261        C  0.62145532  0.07751918  0.91821254     0.85400
C262        C  0.36629341  0.94216234  0.57807009     0.85500
C263        C  0.36626592  0.07752294  0.57807554     0.85300
C264        C  0.62148309  0.94215829  0.91820698     0.85300
C265        C  0.56522294  0.36480688  0.90251604    -0.05300
C266        C  0.55304025  0.40154016  0.87011038    -0.06900
C267        C  0.58911291  0.15486973  0.84377977    -0.05300
C268        C  0.60130506  0.11813596  0.87618204    -0.06900
C269        C  0.57600519  0.27663402  0.89271819    -0.05300
C270        C  0.57832869  0.24304222  0.85358464    -0.06900
C271        C  0.42242680  0.36481143  0.59377895    -0.05300
C272        C  0.43461369  0.40154540  0.62618211    -0.06900
C273        C  0.63531834  0.31960669  0.98068381    -0.05300
C274        C  0.35232857  0.31960674  0.51562009    -0.06900
C275        C  0.51712747  0.31221551  0.98077329    -0.05300
C276        C  0.47051937  0.31221703  0.51552075    -0.06900
C277        C  0.38639846  0.11814123  0.62011025    -0.05300
C278        C  0.39857599  0.15487483  0.65251684    -0.06900
C279        C  0.51901303  0.20007339  0.76561773    -0.05300
C280        C  0.46866953  0.20007621  0.73068143    -0.06900
C281        C  0.63720339  0.20746513  0.76552483    -0.05300
C282        C  0.35047830  0.20746510  0.73077728    -0.06900
C283        C  0.40934465  0.24304762  0.64271869    -0.05300
C284        C  0.41165567  0.27663896  0.60358396    -0.06900
C285        C  0.55308929  0.61813587  0.87009767    -0.05300
C286        C  0.56528144  0.65486963  0.90250011    -0.06900
C287        C  0.58916553  0.86480686  0.84376669    -0.05300
C288        C  0.60134829  0.90154023  0.87617256    -0.06900
C289        C  0.57606307  0.74304214  0.89269616    -0.05300
C290        C  0.57838614  0.77663395  0.85356348    -0.06900
C291        C  0.43466243  0.61814112  0.62616959    -0.05300
C292        C  0.42248494  0.65487494  0.59376276    -0.06900
C293        C  0.63537966  0.70007309  0.98066276    -0.05300
C294        C  0.35239005  0.70007633  0.51559904    -0.06900
C295        C  0.51718911  0.70746525  0.98075532    -0.05300
C296        C  0.47058093  0.70746489  0.51550312    -0.06900
C297        C  0.39862837  0.86481144  0.65250397    -0.05300
C298        C  0.38644146  0.90154550  0.62010067    -0.06900
C299        C  0.46872797  0.81960666  0.73066215    -0.05300
C300        C  0.51907183  0.81960676  0.76559843    -0.06900
C301        C  0.35053751  0.81221732  0.73076147    -0.05300
C302        C  0.63726286  0.81221540  0.76550901    -0.06900
C303        C  0.40940204  0.77663895  0.64269762    -0.05300
C304        C  0.41171357  0.74304773  0.60356231    -0.08100
C305        C  0.74037811  0.81816076  0.18917636     0.05500
C306        C  0.74740558  0.70152394  0.05708647     0.05500
C307        C  0.91408491  0.81815789  0.30708951     0.05500
C308        C  0.90703190  0.70152027  0.43917345     0.05500
C309        C  0.74032062  0.20152386  0.18919375     0.05500
C310        C  0.74734536  0.31816083  0.05710596     0.05500
C311        C  0.91402745  0.20152024  0.30710692     0.05500
C312        C  0.90697181  0.31815783  0.43919273     0.05500
O313        O  0.84627844  0.45966405  0.16700518    -0.63800
O314        O  0.90532090  0.56004220  0.28754742    -0.64100
O315        O  0.90529762  0.45962049  0.28755314    -0.63900
O316        O  0.84630166  0.56000457  0.16699936    -0.63900
O317        O  0.74906919  0.56006110  0.20872674    -0.63900
O318        O  0.80806543  0.45967643  0.32928106    -0.63900
O319        O  0.80808869  0.56001764  0.32927528    -0.63800
O320        O  0.74904584  0.45963910  0.20873232    -0.64000
V321        V  0.87390163  0.50983311  0.22807048     1.35200
V322        V  0.78046497  0.50984826  0.26820978     1.35200
C323        C  0.78809604  0.44216233  0.16821235     0.85400
C324        C  0.86627113  0.57751924  0.32806765     0.85500
C325        C  0.86623992  0.44215829  0.32807551     0.85300
C326        C  0.78812744  0.57752296  0.16820466     0.85300
O327        O  0.91573856  0.06004469  0.45873327    -0.63800
O328        O  0.97477842  0.95966647  0.07927706    -0.64100
O329        O  0.97475793  0.06000699  0.07928109    -0.63900
O330        O  0.91575920  0.95962289  0.45872905    -0.63900
O331        O  0.67965796  0.95967409  0.41700119    -0.63900
O332        O  0.73865694  0.06005873  0.03755371    -0.63900
O333        O  0.73867766  0.95963659  0.03754973    -0.63800
O334        O  0.67963746  0.06001527  0.41700521    -0.64000
V335        V  0.94715651  0.00983543  0.01821084     1.35200
V336        V  0.70725979  0.00984605  0.47807154     1.35200
C337        C  0.95478875  0.07751929  0.41821265     0.85400
C338        C  0.69962686  0.94216239  0.07806997     0.85500
C339        C  0.69959937  0.07752300  0.07807544     0.85300
C340        C  0.95481637  0.94215836  0.41820705     0.85300
C341        C  0.89855645  0.36480680  0.40251627    -0.05300
C342        C  0.88637369  0.40154024  0.37011037    -0.06900
C343        C  0.92244631  0.15486974  0.34377980    -0.05300
C344        C  0.93463838  0.11813603  0.37618223    -0.06900
C345        C  0.90933839  0.27663404  0.39271801    -0.05300
C346        C  0.91166189  0.24304226  0.35358448    -0.06900
C347        C  0.75576009  0.36481144  0.09377895    -0.05300
C348        C  0.76794694  0.40154552  0.12618217    -0.06900
C349        C  0.96865165  0.31960648  0.48068383    -0.05300
C350        C  0.68566193  0.31960687  0.01562000    -0.06900
C351        C  0.85046092  0.31221546  0.48077331    -0.05300
C352        C  0.80385279  0.31221705  0.01552085    -0.06900
C353        C  0.71973168  0.11814116  0.12011015    -0.05300
C354        C  0.73190921  0.15487484  0.15251687    -0.06900
C355        C  0.85234646  0.20007323  0.26561774    -0.05300
C356        C  0.80200266  0.20007610  0.23068136    -0.06900
C357        C  0.97053670  0.20746505  0.26552476    -0.05300
C358        C  0.68381152  0.20746498  0.23077727    -0.06900
C359        C  0.74267782  0.24304770  0.14271866    -0.05300
C360        C  0.74498889  0.27663889  0.10358404    -0.06900
C361        C  0.88642251  0.61813601  0.37009754    -0.05300
C362        C  0.89861467  0.65486972  0.40249997    -0.06900
C363        C  0.92249883  0.86480689  0.34376670    -0.05300
C364        C  0.93468171  0.90154022  0.37617258    -0.06900
C365        C  0.90939624  0.74304227  0.39269644    -0.05300
C366        C  0.91171941  0.77663407  0.35356353    -0.06900
C367        C  0.76799603  0.61814127  0.12616949    -0.05300
C368        C  0.75581856  0.65487488  0.09376275    -0.06900
C369        C  0.96871299  0.70007319  0.48066272    -0.05300
C370        C  0.68572326  0.70007624  0.01559899    -0.06900
C371        C  0.85052251  0.70746514  0.48075559    -0.05300
C372        C  0.80391412  0.70746500  0.01550299    -0.06900
C373        C  0.73196179  0.86481153  0.15250398    -0.05300
C374        C  0.71977506  0.90154538  0.12010093    -0.06900
C375        C  0.80206152  0.81960658  0.23066212    -0.05300
C376        C  0.85240512  0.81960669  0.26559837    -0.06900
C377        C  0.68387104  0.81221723  0.23076150    -0.05300
C378        C  0.97059610  0.81221544  0.26550900    -0.06900
C379        C  0.74273561  0.77663890  0.14269748    -0.05300
C380        C  0.74504706  0.74304778  0.10356223    -0.08100
C381        C  0.74037807  0.81816084  0.68917634     0.05500
C382        C  0.74740543  0.70152390  0.55708664     0.05500
C383        C  0.91408484  0.81815790  0.80708948     0.05500
C384        C  0.90703198  0.70152017  0.93917344     0.05500
C385        C  0.74032062  0.20152395  0.68919371     0.05500
C386        C  0.74734535  0.31816074  0.55710599     0.05500
C387        C  0.91402745  0.20152031  0.80710695     0.05500
C388        C  0.90697182  0.31815786  0.93919271     0.05500
O389        O  0.84627846  0.45966406  0.66700521    -0.63800
O390        O  0.90532088  0.56004229  0.78754741    -0.64100
O391        O  0.90529766  0.45962062  0.78755325    -0.63900
O392        O  0.84630166  0.56000453  0.66699936    -0.63900
O393        O  0.74906922  0.56006114  0.70872686    -0.63900
O394        O  0.80806544  0.45967642  0.82928108    -0.63900
O395        O  0.80808867  0.56001768  0.82927530    -0.63800
O396        O  0.74904588  0.45963901  0.70873237    -0.64000
V397        V  0.87390161  0.50983317  0.72807051     1.35200
V398        V  0.78046496  0.50984829  0.76820982     1.35200
C399        C  0.78809605  0.44216229  0.66821244     0.85400
C400        C  0.86627113  0.57751928  0.82806771     0.85500
C401        C  0.86623988  0.44215844  0.82807550     0.85300
C402        C  0.78812734  0.57752308  0.66820459     0.85300
O403        O  0.91573851  0.06004458  0.95873310    -0.63800
O404        O  0.97477845  0.95966658  0.57927709    -0.64100
O405        O  0.97475798  0.06000697  0.57928124    -0.63900
O406        O  0.91575917  0.95962292  0.95872890    -0.63900
O407        O  0.67965806  0.95967392  0.91700128    -0.63900
O408        O  0.73865693  0.06005884  0.53755372    -0.63900
O409        O  0.73867768  0.95963676  0.53754968    -0.63800
O410        O  0.67963745  0.06001521  0.91700519    -0.64000
V411        V  0.94715653  0.00983548  0.51821094     1.35200
V412        V  0.70725981  0.00984593  0.97807155     1.35200
C413        C  0.95478889  0.07751914  0.91821249     0.85400
C414        C  0.69962693  0.94216238  0.57807007     0.85500
C415        C  0.69959941  0.07752296  0.57807549     0.85300
C416        C  0.95481633  0.94215826  0.91820701     0.85300
C417        C  0.89855645  0.36480686  0.90251607    -0.05300
C418        C  0.88637378  0.40154025  0.87011040    -0.06900
C419        C  0.92244634  0.15486970  0.84377978    -0.05300
C420        C  0.93463834  0.11813601  0.87618202    -0.06900
C421        C  0.90933841  0.27663400  0.89271816    -0.05300
C422        C  0.91166190  0.24304221  0.85358462    -0.06900
C423        C  0.75576007  0.36481142  0.59377895    -0.05300
C424        C  0.76794701  0.40154544  0.62618211    -0.06900
C425        C  0.96865165  0.31960663  0.98068381    -0.05300
C426        C  0.68566193  0.31960674  0.51562001    -0.06900
C427        C  0.85046093  0.31221555  0.98077329    -0.05300
C428        C  0.80385280  0.31221704  0.51552086    -0.06900
C429        C  0.71973166  0.11814121  0.62011026    -0.05300
C430        C  0.73190919  0.15487485  0.65251686    -0.06900
C431        C  0.85234642  0.20007335  0.76561774    -0.05300
C432        C  0.80200269  0.20007621  0.73068137    -0.06900
C433        C  0.97053673  0.20746518  0.76552476    -0.05300
C434        C  0.68381150  0.20746510  0.73077727    -0.06900
C435        C  0.74267783  0.24304763  0.64271869    -0.05300
C436        C  0.74498895  0.27663896  0.60358397    -0.06900
C437        C  0.88642255  0.61813592  0.87009769    -0.05300
C438        C  0.89861469  0.65486961  0.90250011    -0.06900
C439        C  0.92249884  0.86480684  0.84376669    -0.05300
C440        C  0.93468172  0.90154024  0.87617258    -0.06900
C441        C  0.90939633  0.74304215  0.89269615    -0.05300
C442        C  0.91171938  0.77663394  0.85356350    -0.06900
C443        C  0.76799599  0.61814112  0.62616958    -0.05300
C444        C  0.75581824  0.65487494  0.59376275    -0.06900
C445        C  0.96871294  0.70007309  0.98066263    -0.05300
C446        C  0.68572323  0.70007634  0.51559897    -0.06900
C447        C  0.85052255  0.70746525  0.98075534    -0.05300
C448        C  0.80391417  0.70746488  0.51550315    -0.06900
C449        C  0.73196176  0.86481145  0.65250396    -0.05300
C450        C  0.71977503  0.90154550  0.62010066    -0.06900
C451        C  0.80206135  0.81960670  0.73066217    -0.05300
C452        C  0.85240514  0.81960678  0.76559848    -0.06900
C453        C  0.68387096  0.81221728  0.73076153    -0.05300
C454        C  0.97059610  0.81221540  0.76550902    -0.06900
C455        C  0.74273553  0.77663894  0.64269762    -0.05300
C456        C  0.74504687  0.74304773  0.60356231    -0.08100
loop_ 
_geom_bond_atom_site_label_1 
_geom_bond_atom_site_label_2 
_geom_bond_distance 
_geom_bond_site_symmetry_2 
_ccdc_geom_bond_type 
C1           C69   1.465       .  S
C1           C71   1.464       .  S
C1           C73   1.464       .  S
C1           C75   1.467       .  S
C2           C64   1.465       .  S
C2           C66   1.464       .  S
C2           C68   1.464       .  S
C2           C76   1.467       .  S
C3           C59   1.465       .  S
C3           C62   1.467       .  S
C3           C72   1.464       .  S
C3           C74   1.464       .  S
C4           C58   1.465       .  S
C4           C61   1.467       .  S
C4           C65   1.464       .  S
C4           C67   1.464       .  S
C5           C50   1.465       .  S
C5           C52   1.464       .  S
C5           C54   1.464       .  S
C5           C55   1.467       .  S
C6           C43   1.465       .  S
C6           C46   1.464       .  S
C6           C48   1.464       .  S
C6           C56   1.467       .  S
C7           C39   1.465       .  S
C7           C42   1.467       .  S
C7           C51   1.464       .  S
C7           C53   1.464       .  S
C8           C37   1.465       .  S
C8           C41   1.467       .  S
C8           C45   1.464       .  S
C8           C47   1.464       .  S
O9           V17   1.898       .  S
O9           C19   1.263       .  A
O10          V17   1.900       .  S
O10          C20   1.262       .  A
O11          V17   1.900       .  S
O11          C21   1.262       .  A
O12          V17   1.898       .  S
O12          C22   1.263       .  A
O13          V18   1.900       .  S
O13          C22   1.262       .  A
O14          V18   1.898       .  S
O14          C21   1.263       .  A
O15          V18   1.898       .  S
O15          C20   1.263       .  A
O16          V18   1.900       .  S
O16          C19   1.262       .  A
V17          V18   2.091       .  T
C19          C44   1.433       .  S
C20          C57   1.433       .  S
C21          C38   1.433       .  S
C22          C63   1.433       .  S
O23         V107   1.900       .  S
O23          C33   1.262       .  A
O24          V31   1.898   1_565  S
O24         C186   1.263       .  A
O25          V31   1.898       .  S
O25         C187   1.263       .  A
O26         V107   1.900   1_565  S
O26          C36   1.262       .  A
O27          V32   1.898   1_565  S
O27         C340   1.263   1_455  A
O28         V108   1.900   1_554  S
O28          C35   1.262       .  A
O29         V108   1.900   1_564  S
O29          C34   1.262       .  A
O30          V32   1.898       .  S
O30         C337   1.263   1_455  A
V31          O99   1.900   1_554  S
V31         O102   1.900   1_544  S
V31         V260   2.091   1_554  T
V32         O104   1.900       .  S
V32         O105   1.900   1_545  S
V32         V411   2.091   1_455  T
C33         O182   1.263       .  A
C33          C40   1.433       .  S
C34         O328   1.263   1_455  A
C34          C70   1.433       .  S
C35         O329   1.263   1_455  A
C35          C49   1.433       .  S
C36         O179   1.263       .  A
C36          C60   1.433       .  S
C37          C38   1.206       .  T
C39          C40   1.206       .  T
C41          C42   1.208       .  T
C43          C44   1.206       .  T
C45         C274   1.206       .  T
C46         C425   1.206   1_454  T
C47         C124   1.206       .  T
C48         C123   1.206   1_554  T
C49          C50   1.206       .  T
C51          C52   1.206       .  T
C53         C206   1.206       .  T
C54         C357   1.206   1_455  T
C55          C56   1.208       .  T
C57          C58   1.206       .  T
C59          C60   1.206       .  T
C61          C62   1.208       .  T
C63          C64   1.206       .  T
C65         C294   1.206       .  T
C66         C445   1.206   1_454  T
C67         C144   1.206       .  T
C68         C143   1.206   1_554  T
C69          C70   1.206       .  T
C71          C72   1.206       .  T
C73         C378   1.206   1_455  T
C74         C225   1.206       .  T
C75          C76   1.208       .  T
C77         C145   1.465       .  S
C77         C147   1.464       .  S
C77         C149   1.464       .  S
C77         C151   1.467       .  S
C78         C140   1.465       .  S
C78         C142   1.464       .  S
C78         C144   1.464       .  S
C78         C152   1.467       .  S
C79         C135   1.465       .  S
C79         C138   1.467       .  S
C79         C148   1.464       .  S
C79         C150   1.464       .  S
C80         C134   1.465       .  S
C80         C137   1.467       .  S
C80         C141   1.464       .  S
C80         C143   1.464       .  S
C81         C126   1.465       .  S
C81         C128   1.464       .  S
C81         C130   1.464       .  S
C81         C131   1.467       .  S
C82         C119   1.465       .  S
C82         C122   1.464       .  S
C82         C124   1.464       .  S
C82         C132   1.467       .  S
C83         C115   1.465       .  S
C83         C118   1.467       .  S
C83         C127   1.464       .  S
C83         C129   1.464       .  S
C84         C113   1.465       .  S
C84         C117   1.467       .  S
C84         C121   1.464       .  S
C84         C123   1.464       .  S
O85          V93   1.898       .  S
O85          C95   1.263       .  A
O86          V93   1.900       .  S
O86          C96   1.262       .  A
O87          V93   1.900       .  S
O87          C97   1.262       .  A
O88          V93   1.898       .  S
O88          C98   1.263       .  A
O89          V94   1.900       .  S
O89          C98   1.262       .  A
O90          V94   1.898       .  S
O90          C97   1.263       .  A
O91          V94   1.898       .  S
O91          C96   1.263       .  A
O92          V94   1.900       .  S
O92          C95   1.262       .  A
V93          V94   2.091       .  T
C95         C120   1.433       .  S
C96         C133   1.433       .  S
C97         C114   1.433       .  S
C98         C139   1.433       .  S
O99         C109   1.262       .  A
O100        V107   1.898   1_565  S
O100        C262   1.263       .  A
O101        V107   1.898       .  S
O101        C263   1.263       .  A
O102        C112   1.262       .  A
O103        V108   1.898   1_565  S
O103        C416   1.263   1_455  A
O104        C111   1.262       .  A
O105        C110   1.262       .  A
O106        V108   1.898       .  S
O106        C413   1.263   1_455  A
V107        V184   2.091       .  T
V108        V335   2.091   1_456  T
C109        O258   1.263       .  A
C109        C116   1.433       .  S
C110        O404   1.263   1_455  A
C110        C146   1.433       .  S
C111        O405   1.263   1_455  A
C111        C125   1.433       .  S
C112        O255   1.263       .  A
C112        C136   1.433       .  S
C113        C114   1.206       .  T
C115        C116   1.206       .  T
C117        C118   1.208       .  T
C119        C120   1.206       .  T
C121        C198   1.206   1_556  T
C122        C349   1.206   1_455  T
C125        C126   1.206       .  T
C127        C128   1.206       .  T
C129        C282   1.206       .  T
C130        C433   1.206   1_455  T
C131        C132   1.208       .  T
C133        C134   1.206       .  T
C135        C136   1.206       .  T
C137        C138   1.208       .  T
C139        C140   1.206       .  T
C141        C218   1.206   1_556  T
C142        C369   1.206   1_455  T
C145        C146   1.206       .  T
C147        C148   1.206       .  T
C149        C454   1.206   1_455  T
C150        C301   1.206       .  T
C151        C152   1.208       .  T
C153        C221   1.465       .  S
C153        C223   1.464       .  S
C153        C225   1.464       .  S
C153        C227   1.467       .  S
C154        C216   1.465       .  S
C154        C218   1.464       .  S
C154        C220   1.464       .  S
C154        C228   1.467       .  S
C155        C211   1.465       .  S
C155        C214   1.467       .  S
C155        C224   1.464       .  S
C155        C226   1.464       .  S
C156        C210   1.465       .  S
C156        C213   1.467       .  S
C156        C217   1.464       .  S
C156        C219   1.464       .  S
C157        C202   1.465       .  S
C157        C204   1.464       .  S
C157        C206   1.464       .  S
C157        C207   1.467       .  S
C158        C195   1.465       .  S
C158        C198   1.464       .  S
C158        C200   1.464       .  S
C158        C208   1.467       .  S
C159        C191   1.465       .  S
C159        C194   1.467       .  S
C159        C203   1.464       .  S
C159        C205   1.464       .  S
C160        C189   1.465       .  S
C160        C193   1.467       .  S
C160        C197   1.464       .  S
C160        C199   1.464       .  S
O161        V169   1.898       .  S
O161        C171   1.263       .  A
O162        V169   1.900       .  S
O162        C172   1.262       .  A
O163        V169   1.900       .  S
O163        C173   1.262       .  A
O164        V169   1.898       .  S
O164        C174   1.263       .  A
O165        V170   1.900       .  S
O165        C174   1.262       .  A
O166        V170   1.898       .  S
O166        C173   1.263       .  A
O167        V170   1.898       .  S
O167        C172   1.263       .  A
O168        V170   1.900       .  S
O168        C171   1.262       .  A
V169        V170   2.091       .  T
C171        C196   1.433       .  S
C172        C209   1.433       .  S
C173        C190   1.433       .  S
C174        C215   1.433       .  S
O175        V259   1.900       .  S
O175        C185   1.262       .  A
O176        V183   1.898   1_565  S
O176        C338   1.263       .  A
O177        V183   1.898       .  S
O177        C339   1.263       .  A
O178        V259   1.900   1_565  S
O178        C188   1.262       .  A
O179        V184   1.898   1_565  S
O180        V260   1.900   1_554  S
O180        C187   1.262       .  A
O181        V260   1.900   1_564  S
O181        C186   1.262       .  A
O182        V184   1.898       .  S
V183        O251   1.900   1_554  S
V183        O254   1.900   1_544  S
V183        V412   2.091   1_554  T
V184        O256   1.900       .  S
V184        O257   1.900   1_545  S
C185        O334   1.263       .  A
C185        C192   1.433       .  S
C186        C222   1.433       .  S
C187        C201   1.433       .  S
C188        O331   1.263       .  A
C188        C212   1.433       .  S
C189        C190   1.206       .  T
C191        C192   1.206       .  T
C193        C194   1.208       .  T
C195        C196   1.206       .  T
C197        C426   1.206       .  T
C199        C276   1.206       .  T
C200        C275   1.206   1_554  T
C201        C202   1.206       .  T
C203        C204   1.206       .  T
C205        C358   1.206       .  T
C207        C208   1.208       .  T
C209        C210   1.206       .  T
C211        C212   1.206       .  T
C213        C214   1.208       .  T
C215        C216   1.206       .  T
C217        C446   1.206       .  T
C219        C296   1.206       .  T
C220        C295   1.206   1_554  T
C221        C222   1.206       .  T
C223        C224   1.206       .  T
C226        C377   1.206       .  T
C227        C228   1.208       .  T
C229        C297   1.465       .  S
C229        C299   1.464       .  S
C229        C301   1.464       .  S
C229        C303   1.467       .  S
C230        C292   1.465       .  S
C230        C294   1.464       .  S
C230        C296   1.464       .  S
C230        C304   1.467       .  S
C231        C287   1.465       .  S
C231        C290   1.467       .  S
C231        C300   1.464       .  S
C231        C302   1.464       .  S
C232        C286   1.465       .  S
C232        C289   1.467       .  S
C232        C293   1.464       .  S
C232        C295   1.464       .  S
C233        C278   1.465       .  S
C233        C280   1.464       .  S
C233        C282   1.464       .  S
C233        C283   1.467       .  S
C234        C271   1.465       .  S
C234        C274   1.464       .  S
C234        C276   1.464       .  S
C234        C284   1.467       .  S
C235        C267   1.465       .  S
C235        C270   1.467       .  S
C235        C279   1.464       .  S
C235        C281   1.464       .  S
C236        C265   1.465       .  S
C236        C269   1.467       .  S
C236        C273   1.464       .  S
C236        C275   1.464       .  S
O237        V245   1.898       .  S
O237        C247   1.263       .  A
O238        V245   1.900       .  S
O238        C248   1.262       .  A
O239        V245   1.900       .  S
O239        C249   1.262       .  A
O240        V245   1.898       .  S
O240        C250   1.263       .  A
O241        V246   1.900       .  S
O241        C250   1.262       .  A
O242        V246   1.898       .  S
O242        C249   1.263       .  A
O243        V246   1.898       .  S
O243        C248   1.263       .  A
O244        V246   1.900       .  S
O244        C247   1.262       .  A
V245        V246   2.091       .  T
C247        C272   1.433       .  S
C248        C285   1.433       .  S
C249        C266   1.433       .  S
C250        C291   1.433       .  S
O251        C261   1.262       .  A
O252        V259   1.898   1_565  S
O252        C414   1.263       .  A
O253        V259   1.898       .  S
O253        C415   1.263       .  A
O254        C264   1.262       .  A
O255        V260   1.898   1_565  S
O256        C263   1.262       .  A
O257        C262   1.262       .  A
O258        V260   1.898       .  S
V259        V336   2.091       .  T
C261        O410   1.263       .  A
C261        C268   1.433       .  S
C262        C298   1.433       .  S
C263        C277   1.433       .  S
C264        O407   1.263       .  A
C264        C288   1.433       .  S
C265        C266   1.206       .  T
C267        C268   1.206       .  T
C269        C270   1.208       .  T
C271        C272   1.206       .  T
C273        C350   1.206   1_556  T
C277        C278   1.206       .  T
C279        C280   1.206       .  T
C281        C434   1.206       .  T
C283        C284   1.208       .  T
C285        C286   1.206       .  T
C287        C288   1.206       .  T
C289        C290   1.208       .  T
C291        C292   1.206       .  T
C293        C370   1.206   1_556  T
C297        C298   1.206       .  T
C299        C300   1.206       .  T
C302        C453   1.206       .  T
C303        C304   1.208       .  T
C305        C373   1.465       .  S
C305        C375   1.464       .  S
C305        C377   1.464       .  S
C305        C379   1.467       .  S
C306        C368   1.465       .  S
C306        C370   1.464       .  S
C306        C372   1.464       .  S
C306        C380   1.467       .  S
C307        C363   1.465       .  S
C307        C366   1.467       .  S
C307        C376   1.464       .  S
C307        C378   1.464       .  S
C308        C362   1.465       .  S
C308        C365   1.467       .  S
C308        C369   1.464       .  S
C308        C371   1.464       .  S
C309        C354   1.465       .  S
C309        C356   1.464       .  S
C309        C358   1.464       .  S
C309        C359   1.467       .  S
C310        C347   1.465       .  S
C310        C350   1.464       .  S
C310        C352   1.464       .  S
C310        C360   1.467       .  S
C311        C343   1.465       .  S
C311        C346   1.467       .  S
C311        C355   1.464       .  S
C311        C357   1.464       .  S
C312        C341   1.465       .  S
C312        C345   1.467       .  S
C312        C349   1.464       .  S
C312        C351   1.464       .  S
O313        V321   1.898       .  S
O313        C323   1.263       .  A
O314        V321   1.900       .  S
O314        C324   1.262       .  A
O315        V321   1.900       .  S
O315        C325   1.262       .  A
O316        V321   1.898       .  S
O316        C326   1.263       .  A
O317        V322   1.900       .  S
O317        C326   1.262       .  A
O318        V322   1.898       .  S
O318        C325   1.263       .  A
O319        V322   1.898       .  S
O319        C324   1.263       .  A
O320        V322   1.900       .  S
O320        C323   1.262       .  A
V321        V322   2.091       .  T
C323        C348   1.433       .  S
C324        C361   1.433       .  S
C325        C342   1.433       .  S
C326        C367   1.433       .  S
O327        V411   1.900       .  S
O327        C337   1.262       .  A
O328        V335   1.898   1_565  S
O329        V335   1.898       .  S
O330        V411   1.900   1_565  S
O330        C340   1.262       .  A
O331        V336   1.898   1_565  S
O332        V412   1.900   1_554  S
O332        C339   1.262       .  A
O333        V412   1.900   1_564  S
O333        C338   1.262       .  A
O334        V336   1.898       .  S
V335        O403   1.900   1_554  S
V335        O406   1.900   1_544  S
V336        O408   1.900       .  S
V336        O409   1.900   1_545  S
C337        C344   1.433       .  S
C338        C374   1.433       .  S
C339        C353   1.433       .  S
C340        C364   1.433       .  S
C341        C342   1.206       .  T
C343        C344   1.206       .  T
C345        C346   1.208       .  T
C347        C348   1.206       .  T
C351        C428   1.206       .  T
C352        C427   1.206   1_554  T
C353        C354   1.206       .  T
C355        C356   1.206       .  T
C359        C360   1.208       .  T
C361        C362   1.206       .  T
C363        C364   1.206       .  T
C365        C366   1.208       .  T
C367        C368   1.206       .  T
C371        C448   1.206       .  T
C372        C447   1.206   1_554  T
C373        C374   1.206       .  T
C375        C376   1.206       .  T
C379        C380   1.208       .  T
C381        C449   1.465       .  S
C381        C451   1.464       .  S
C381        C453   1.464       .  S
C381        C455   1.467       .  S
C382        C444   1.465       .  S
C382        C446   1.464       .  S
C382        C448   1.464       .  S
C382        C456   1.467       .  S
C383        C439   1.465       .  S
C383        C442   1.467       .  S
C383        C452   1.464       .  S
C383        C454   1.464       .  S
C384        C438   1.465       .  S
C384        C441   1.467       .  S
C384        C445   1.464       .  S
C384        C447   1.464       .  S
C385        C430   1.465       .  S
C385        C432   1.464       .  S
C385        C434   1.464       .  S
C385        C435   1.467       .  S
C386        C423   1.465       .  S
C386        C426   1.464       .  S
C386        C428   1.464       .  S
C386        C436   1.467       .  S
C387        C419   1.465       .  S
C387        C422   1.467       .  S
C387        C431   1.464       .  S
C387        C433   1.464       .  S
C388        C417   1.465       .  S
C388        C421   1.467       .  S
C388        C425   1.464       .  S
C388        C427   1.464       .  S
O389        V397   1.898       .  S
O389        C399   1.263       .  A
O390        V397   1.900       .  S
O390        C400   1.262       .  A
O391        V397   1.900       .  S
O391        C401   1.262       .  A
O392        V397   1.898       .  S
O392        C402   1.263       .  A
O393        V398   1.900       .  S
O393        C402   1.262       .  A
O394        V398   1.898       .  S
O394        C401   1.263       .  A
O395        V398   1.898       .  S
O395        C400   1.263       .  A
O396        V398   1.900       .  S
O396        C399   1.262       .  A
V397        V398   2.091       .  T
C399        C424   1.433       .  S
C400        C437   1.433       .  S
C401        C418   1.433       .  S
C402        C443   1.433       .  S
O403        C413   1.262       .  A
O404        V411   1.898   1_565  S
O405        V411   1.898       .  S
O406        C416   1.262       .  A
O407        V412   1.898   1_565  S
O408        C415   1.262       .  A
O409        C414   1.262       .  A
O410        V412   1.898       .  S
C413        C420   1.433       .  S
C414        C450   1.433       .  S
C415        C429   1.433       .  S
C416        C440   1.433       .  S
C417        C418   1.206       .  T
C419        C420   1.206       .  T
C421        C422   1.208       .  T
C423        C424   1.206       .  T
C429        C430   1.206       .  T
C431        C432   1.206       .  T
C435        C436   1.208       .  T
C437        C438   1.206       .  T
C439        C440   1.206       .  T
C441        C442   1.208       .  T
C443        C444   1.206       .  T
C449        C450   1.206       .  T
C451        C452   1.206       .  T
C455        C456   1.208       .  T
