geometry optimzed in LAMMPS
_audit_creation_date              2020-11-30 
_audit_creation_method            'lammps2cif' 
_symmetry_space_group_name_H-M    'P1' 
_symmetry_Int_Tables_number       1 
_symmetry_cell_setting            triclinic 
loop_ 
_symmetry_equiv_pos_as_xyz 
  x,y,z 
_cell_length_a                    39.313674765599 
_cell_length_b                    39.4146790362058 
_cell_length_c                    39.335684362363466 
_cell_angle_alpha                 89.99155928987449 
_cell_angle_beta                  90.01157909027803 
_cell_angle_gamma                 90.06728207480064 
loop_ 
_atom_site_label 
_atom_site_type_symbol 
_atom_site_fract_x 
_atom_site_fract_y 
_atom_site_fract_z 
_atom_site_charge 
N1          N  0.44809043  0.63941911  0.00187658    -0.27540
N2          N  0.43021762  0.66748789  0.99771210    -0.35400
C3          C  0.39681021  0.65958059  0.99786917     0.00800
C4          C  0.39381830  0.62493440  0.00297598     0.06830
C5          C  0.42678231  0.61303357  0.00507414    -0.06270
H6          H  0.37633552  0.67772504  0.99538448     0.07490
H7          H  0.43472034  0.58701861  0.00877821     0.08690
Cu8        Cu  0.45336870  0.71474955  0.99438521     0.44170
Cu9        Cu  0.50061841  0.63763177  0.00342295     0.41990
Cu10       Cu  0.54770547  0.71473142  0.99486541     0.43880
N11         N  0.48371885  0.75793846  0.99541956    -0.34930
N12         N  0.51741476  0.75797687  0.99562061    -0.29180
C13         C  0.52849688  0.79025935  0.99701916    -0.05280
C14         C  0.50051931  0.81145382  0.99774037     0.06940
C15         C  0.47259027  0.79016751  0.99668971     0.00730
H16         H  0.55499020  0.79771000  0.99755111     0.08380
H17         H  0.44608261  0.79751957  0.99691261     0.07460
N18         N  0.57093163  0.66746435  0.99797500    -0.36370
N19         N  0.55316459  0.63930486  0.00229659    -0.28550
C20         C  0.57455980  0.61292121  0.00493416    -0.03790
C21         C  0.60740308  0.62495020  0.00194885     0.04820
C22         C  0.60431689  0.65962969  0.99729513     0.02910
H23         H  0.56676831  0.58681610  0.00843652     0.08020
H24         H  0.62472937  0.67779756  0.99419355     0.06850
N25         N  0.72284719  0.46763471  0.99830942    -0.27540
N26         N  0.75152812  0.48516015  0.99831287    -0.35400
C27         C  0.74412395  0.51854405  0.99790396     0.00800
C28         C  0.70908892  0.52195821  0.99716140     0.06830
C29         C  0.69646205  0.48925377  0.99782996    -0.06270
H30         H  0.76277157  0.53873540  0.99864822     0.07490
H31         H  0.67000105  0.48173865  0.99845817     0.08690
Cu32       Cu  0.79884342  0.46186567  0.99955241     0.44170
Cu33       Cu  0.72073228  0.41513184  0.00001606     0.41990
Cu34       Cu  0.79896611  0.36812958  0.00027805     0.43880
N35         N  0.84222434  0.43185632  0.00017301    -0.34930
N36         N  0.84225723  0.39825817  0.00027616    -0.29180
C37         C  0.87460225  0.38722252  0.00057719    -0.05280
C38         C  0.89586392  0.41514045  0.00068821     0.06940
C39         C  0.87456332  0.44299751  0.00041721     0.00730
H40         H  0.88204677  0.36079086  0.00070946     0.08380
H41         H  0.88197844  0.46944491  0.00033973     0.07460
N42         N  0.75155761  0.34506042  0.00152171    -0.36370
N43         N  0.72294222  0.36263913  0.00167697    -0.28550
C44         C  0.69649114  0.34106486  0.00224999    -0.03790
C45         C  0.70900304  0.30836303  0.00279983     0.04820
C46         C  0.74403230  0.31169359  0.00190716     0.02910
H47         H  0.67005354  0.34861436  0.00173018     0.08020
H48         H  0.76259517  0.29146147  0.00107433     0.06850
N49         N  0.55195003  0.19230083  0.99604124    -0.27540
N50         N  0.56943657  0.16417942  0.00141664    -0.35400
C51         C  0.60283548  0.17188003  0.00275672     0.00800
C52         C  0.60627052  0.20641392  0.99744080     0.06830
C53         C  0.57359579  0.21853422  0.99339005    -0.06270
H54         H  0.62303602  0.15369654  0.00674027     0.07490
H55         H  0.56608490  0.24459603  0.98916479     0.08690
Cu56       Cu  0.54616661  0.11698018  0.00498888     0.44170
Cu57       Cu  0.49941627  0.19421573  0.99373335     0.41990
Cu58       Cu  0.45244369  0.11672773  0.00479831     0.43880
N59         N  0.51621675  0.07350429  0.00430245    -0.34930
N60         N  0.48253528  0.07337740  0.00422983    -0.29180
C61         C  0.47151682  0.04106139  0.00305574    -0.05280
C62         C  0.49954600  0.01991355  0.00235234     0.06940
C63         C  0.52743055  0.04129116  0.00317185     0.00730
H64         H  0.44503734  0.03355364  0.00263943     0.08380
H65         H  0.55395608  0.03400941  0.00286691     0.07460
N66         N  0.42932810  0.16398794  0.00128494    -0.36370
N67         N  0.44688401  0.19213067  0.99600189    -0.28550
C68         C  0.42530578  0.21836924  0.99340171    -0.03790
C69         C  0.39260200  0.20624857  0.99737968     0.04820
C70         C  0.39594615  0.17169881  0.00261318     0.02910
H71         H  0.43288640  0.24444325  0.98926028     0.08020
H72         H  0.37569303  0.15351164  0.00653711     0.06850
N73         N  0.27732234  0.46763887  0.99890420    -0.27540
N74         N  0.24903357  0.48553052  0.99622758    -0.35400
C75         C  0.25704465  0.51881939  0.99566107     0.00800
C76         C  0.29207564  0.52171705  0.99819125     0.06830
C77         C  0.30397094  0.48884698  0.00038643    -0.06270
H78         H  0.23876208  0.53928268  0.99457735     0.07490
H79         H  0.33015393  0.48092629  0.00328908     0.08690
Cu80       Cu  0.20139460  0.46278302  0.99580946     0.44170
Cu81       Cu  0.27914320  0.41524629  0.00133673     0.41990
Cu82       Cu  0.20120720  0.36894962  0.99997034     0.43880
N83         N  0.15805180  0.43268259  0.99778502    -0.34930
N84         N  0.15805541  0.39911032  0.99915573    -0.29180
C85         C  0.12574443  0.38798472  0.00023193    -0.05280
C86         C  0.10446124  0.41581197  0.99957081     0.06940
C87         C  0.12570014  0.44372186  0.99803675     0.00730
H88         H  0.11834680  0.36156145  0.00145820     0.08380
H89         H  0.11823956  0.47012074  0.99711448     0.07460
N90         N  0.24825819  0.34539632  0.00183453    -0.36370
N91         N  0.27697823  0.36282186  0.00258550    -0.28550
C92         C  0.30327875  0.34113366  0.00322159    -0.03790
C93         C  0.29051842  0.30849178  0.00320555     0.04820
C94         C  0.25552633  0.31199583  0.00190999     0.02910
H95         H  0.32978050  0.34856726  0.00306429     0.08020
H96         H  0.23683507  0.29187384  0.00053813     0.06850
N97         N  0.00263560  0.46726184  0.72472033    -0.27540
N98         N  0.99983043  0.48603765  0.75231924    -0.35400
C99         C  0.99659781  0.51884132  0.74292175     0.00800
C100        C  0.99693017  0.52026846  0.70761894     0.06830
C101        C  0.00158071  0.48714317  0.69719325    -0.06270
H102        H  0.99333781  0.53984054  0.76032007     0.07490
H103        H  0.00350217  0.47793025  0.67136569     0.08690
Cu104      Cu  0.99966566  0.46320571  0.79997618     0.44170
Cu105      Cu  0.00441110  0.41528037  0.72495564     0.41990
Cu106      Cu  0.00674909  0.36701343  0.80026217     0.43880
N107        N  0.00087110  0.43196165  0.84265964    -0.34930
N108        N  0.00340316  0.39838883  0.84278156    -0.29180
C109        C  0.00326459  0.38744511  0.87516681    -0.05280
C110        C  0.00061745  0.41527413  0.89631510     0.06940
C111        C  0.99919050  0.44302412  0.87495553     0.00730
H112        H  0.00510580  0.36111420  0.88272350     0.08380
H113        H  0.99712373  0.46939554  0.88229924     0.07460
N114        N  0.00612995  0.34430545  0.75251170    -0.36370
N115        N  0.00403385  0.36326373  0.72498446    -0.28550
C116        C  0.00303948  0.34340552  0.69748116    -0.03790
C117        C  0.00497737  0.30989327  0.70769326     0.04820
C118        C  0.00707939  0.31136768  0.74302582     0.02910
H119        H  0.00140688  0.35286846  0.67171055     0.08020
H120        H  0.00983219  0.29034120  0.76046031     0.06850
N121        N  0.01065978  0.64043572  0.55223867    -0.27540
N122        N  0.00462734  0.66788971  0.57049299    -0.35400
C123        C  0.00106349  0.65882385  0.60339165     0.00800
C124        C  0.00519568  0.62393267  0.60565649     0.06830
C125        C  0.01112191  0.61329914  0.57271847    -0.06270
H126        H  0.99444654  0.67603844  0.62375248     0.07490
H127        H  0.01418436  0.58743048  0.56404145     0.08690
Cu128      Cu  0.99960610  0.71518428  0.54779866     0.44170
Cu129      Cu  0.01376527  0.63970727  0.49991352     0.41990
Cu130      Cu  0.00240633  0.71568327  0.45288567     0.43880
N131        N  0.99816590  0.75822564  0.51731253    -0.34930
N132        N  0.99927190  0.75834737  0.48364098    -0.29180
C133        C  0.99900045  0.79062557  0.47262632    -0.05280
C134        C  0.99776502  0.81175061  0.50058677     0.06940
C135        C  0.99722276  0.79045916  0.52847283     0.00730
H136        H  0.00021724  0.79812355  0.44618978     0.08380
H137        H  0.99676155  0.79781195  0.55497027     0.07460
N138        N  0.00540883  0.66856204  0.42966459    -0.36370
N139        N  0.00962237  0.64059210  0.44765980    -0.28550
C140        C  0.00800800  0.61364607  0.42694552    -0.03790
C141        C  0.00242148  0.62509613  0.39424767     0.04820
C142        C  0.00125690  0.66012333  0.39668767     0.02910
H143        H  0.00967311  0.58752740  0.43524930     0.08020
H144        H  0.99621948  0.67794559  0.37638954     0.06850
N145        N  0.99708565  0.46828083  0.27625658    -0.27540
N146        N  0.00084697  0.48643053  0.24831959    -0.35400
C147        C  0.00188766  0.51959692  0.25677885     0.00800
C148        C  0.99883502  0.52209669  0.29186965     0.06830
C149        C  0.99574198  0.48903387  0.30315472    -0.06270
H150        H  0.00399654  0.54021441  0.23874947     0.07490
H151        H  0.99268447  0.48061455  0.32916272     0.08690
Cu152      Cu  0.00339786  0.46315476  0.20108381     0.44170
Cu153      Cu  0.99409623  0.41616498  0.27708093     0.41990
Cu154      Cu  0.00455513  0.36782465  0.20160487     0.43880
N155        N  0.00331751  0.43213098  0.15839905    -0.34930
N156        N  0.00369632  0.39849368  0.15848879    -0.29180
C157        C  0.00283251  0.38738993  0.12616285    -0.05280
C158        C  0.00184582  0.41524755  0.10485883     0.06940
C159        C  0.00222078  0.44313695  0.12606914     0.00730
H160        H  0.00282410  0.36095227  0.11875952     0.08380
H161        H  0.00161099  0.46955317  0.11860789     0.07460
N162        N  0.00256900  0.34552293  0.24950011    -0.36370
N163        N  0.99759214  0.36409472  0.27696880    -0.28550
C164        C  0.99815274  0.34410957  0.30447098    -0.03790
C165        C  0.00461032  0.31122794  0.29418952     0.04820
C166        C  0.00662962  0.31284579  0.25897786     0.02910
H167        H  0.99471621  0.35310592  0.33021747     0.08020
H168        H  0.01162597  0.29207883  0.24171344     0.06850
N169        N  0.98906432  0.18813731  0.44716204    -0.27540
N170        N  0.99941107  0.16178154  0.42923422    -0.35400
C171        C  0.00424937  0.17157624  0.39672386     0.00800
C172        C  0.99651236  0.20581654  0.39438381     0.06830
C173        C  0.98717231  0.21535798  0.42685738    -0.06270
H174        H  0.01423878  0.15549434  0.37681186     0.07490
H175        H  0.98100729  0.24069187  0.43545477     0.08690
Cu176      Cu  0.00830007  0.11528682  0.45214270     0.44170
Cu177      Cu  0.98301202  0.18773912  0.49927583     0.41990
Cu178      Cu  0.00933870  0.11590069  0.54706863     0.43880
N179        N  0.00973939  0.07267508  0.48303976    -0.34930
N180        N  0.01007736  0.07285589  0.51672524    -0.29180
C181        C  0.00835017  0.04070774  0.52800918    -0.05280
C182        C  0.00670211  0.01942599  0.50018711     0.06940
C183        C  0.00780794  0.04042577  0.47213293     0.00730
H184        H  0.00750328  0.03346874  0.55453204     0.08380
H185        H  0.00642975  0.03292606  0.44570719     0.07460
N186        N  0.00077580  0.16277542  0.56934530    -0.36370
N187        N  0.98948582  0.18868922  0.55132279    -0.28550
C188        C  0.98775704  0.21619873  0.57124022    -0.03790
C189        C  0.99908059  0.20750264  0.60333667     0.04820
C190        C  0.00665793  0.17322218  0.60147412     0.02910
H191        H  0.98042225  0.24116478  0.56248846     0.08020
H192        H  0.01727381  0.15755216  0.62140174     0.06850
N193        N  0.44789913  0.91893411  0.72280578    -0.27540
N194        N  0.43044046  0.91666534  0.75143967    -0.35400
C195        C  0.39697595  0.91592091  0.74408955     0.00800
C196        C  0.39346751  0.91822953  0.70919277     0.06830
C197        C  0.42614290  0.91979783  0.69650495    -0.06270
H198        H  0.37681993  0.91361345  0.76266947     0.07490
H199        H  0.43357645  0.92100747  0.67004945     0.08690
Cu200      Cu  0.45365627  0.91460004  0.79871125     0.44170
Cu201      Cu  0.50047828  0.91977255  0.72043234     0.41990
Cu202      Cu  0.54714912  0.91502465  0.79885452     0.43880
N203        N  0.48348522  0.91466487  0.84219723    -0.34930
N204        N  0.51715532  0.91482529  0.84225965    -0.29180
C205        C  0.52821799  0.91539858  0.87460463    -0.05280
C206        C  0.50020954  0.91566695  0.89582216     0.06940
C207        C  0.47228948  0.91513316  0.87449250     0.00730
H208        H  0.55470538  0.91571506  0.88207679     0.08380
H209        H  0.44577171  0.91520137  0.88185125     0.07460
N210        N  0.57048086  0.91714919  0.75160649    -0.36370
N211        N  0.55305581  0.91921721  0.72293339    -0.28550
C212        C  0.57483836  0.92001805  0.69666022    -0.03790
C213        C  0.60751644  0.91867080  0.70938280     0.04820
C214        C  0.60395936  0.91649485  0.74429699     0.02910
H215        H  0.56742044  0.92098317  0.67018812     0.08020
H216        H  0.62409198  0.91423162  0.76290964     0.06850
N217        N  0.72330908  0.91221947  0.55247930    -0.27540
N218        N  0.75161946  0.91727297  0.56991948    -0.35400
C219        C  0.74406950  0.91842497  0.60332309     0.00800
C220        C  0.70944183  0.91332368  0.60682318     0.06830
C221        C  0.69709419  0.90958828  0.57418917    -0.06270
H222        H  0.76242038  0.92215967  0.62347906     0.07490
H223        H  0.67089672  0.90558920  0.56675207     0.08690
Cu224      Cu  0.79892813  0.92073901  0.54678990     0.44170
Cu225      Cu  0.72106121  0.91015906  0.49994248     0.41990
Cu226      Cu  0.79914972  0.91866625  0.45336328     0.43880
N227        N  0.84251926  0.92025942  0.51701469    -0.34930
N228        N  0.84259021  0.91951203  0.48336911    -0.29180
C229        C  0.87495824  0.91870599  0.47234179    -0.05280
C230        C  0.89620381  0.91892411  0.50033800     0.06940
C231        C  0.87484365  0.91990226  0.52822121     0.00730
H232        H  0.88242782  0.91775682  0.44588536     0.08380
H233        H  0.88220427  0.92010122  0.55472755     0.07460
N234        N  0.75191252  0.91556261  0.43001665    -0.36370
N235        N  0.72337697  0.91174124  0.44739200    -0.28550
C236        C  0.69710839  0.91018279  0.42561461    -0.03790
C237        C  0.70970732  0.91315265  0.39301917     0.04820
C238        C  0.74451091  0.91676396  0.39658493     0.02910
H239        H  0.67072387  0.90756551  0.43299061     0.08020
H240        H  0.76300894  0.92000373  0.37648460     0.06850
N241        N  0.44794935  0.91929698  0.27710736    -0.27540
N242        N  0.43047961  0.91417532  0.24884198    -0.35400
C243        C  0.39707055  0.91288970  0.25642163     0.00800
C244        C  0.39359777  0.91798309  0.29102419     0.06830
C245        C  0.42625260  0.92184214  0.30332640    -0.06270
H246        H  0.37689296  0.90908027  0.23810681     0.07490
H247        H  0.43371404  0.92585723  0.32949755     0.08690
Cu248      Cu  0.45358435  0.91087904  0.20156475     0.44170
Cu249      Cu  0.50050901  0.92150636  0.27929728     0.41990
Cu250      Cu  0.54711695  0.91259659  0.20138964     0.43880
N251        N  0.48340853  0.91183882  0.15805840    -0.34930
N252        N  0.51707580  0.91247147  0.15800597    -0.29180
C253        C  0.52812647  0.91358482  0.12567580    -0.05280
C254        C  0.50012097  0.91367732  0.10444521     0.06940
C255        C  0.47220764  0.91256415  0.12575944     0.00730
H256        H  0.55460713  0.91438175  0.11822295     0.08380
H257        H  0.44569119  0.91238915  0.11838680     0.07460
N258        N  0.57046593  0.91558847  0.24858765    -0.36370
N259        N  0.55307810  0.91973193  0.27704953    -0.28550
C260        C  0.57485354  0.92146733  0.30329923    -0.03790
C261        C  0.60745814  0.91820195  0.29076995     0.04820
C262        C  0.60390291  0.91428988  0.25602319     0.02910
H263        H  0.56747050  0.92443464  0.32962658     0.08020
H264        H  0.62401783  0.91091988  0.23757206     0.06850
N265        N  0.27766887  0.91200115  0.55243648    -0.27540
N266        N  0.24930297  0.91663933  0.56986803    -0.35400
C267        C  0.25680393  0.91778894  0.60327588     0.00800
C268        C  0.29147088  0.91314187  0.60677709     0.06830
C269        C  0.30389520  0.90964445  0.57416282    -0.06270
H270        H  0.23839739  0.92119338  0.62342521     0.07490
H271        H  0.33013377  0.90596045  0.56675280     0.08690
Cu272      Cu  0.20200558  0.91934865  0.54676452     0.44170
Cu273      Cu  0.27991149  0.90996099  0.49991193     0.41990
Cu274      Cu  0.20170318  0.91603992  0.45332586     0.43880
N275        N  0.15849368  0.91744728  0.51703280    -0.34930
N276        N  0.15840074  0.91629962  0.48340143    -0.29180
C277        C  0.12605901  0.91476055  0.47240646    -0.05280
C278        C  0.10487590  0.91482064  0.50041947     0.06940
C279        C  0.12620862  0.91658738  0.52827545     0.00730
H280        H  0.11856721  0.91367320  0.44595780     0.08380
H281        H  0.11885750  0.91727141  0.55477347     0.07460
N282        N  0.24887478  0.91348299  0.42995835    -0.36370
N283        N  0.27751978  0.91085627  0.44735934    -0.28550
C284        C  0.30380177  0.91000272  0.42558538    -0.03790
C285        C  0.29108917  0.91188557  0.39294160     0.04820
C286        C  0.25619299  0.91443628  0.39651155     0.02910
H287        H  0.33027474  0.90870963  0.43299026     0.08020
H288        H  0.23760773  0.91719726  0.37641766     0.06850
O289        O  0.94960592  0.91724714  0.47220877    -0.73190
O290        O  0.05154601  0.91424405  0.47225565    -0.74170
O291        O  0.99898670  0.86487617  0.47234728    -0.62790
O292        O  0.00256191  0.96639013  0.47214389    -0.71200
O293        O  0.00262796  0.96654645  0.52862635    -0.70760
O294        O  0.99884520  0.86494589  0.52882069    -0.62010
O295        O  0.05157596  0.91434691  0.52873141    -0.74520
O296        O  0.94955353  0.91747891  0.52867167    -0.73300
Cu297      Cu  0.00061702  0.91565164  0.47026457     1.04560
Cu298      Cu  0.00059332  0.91579269  0.53070264     1.04330
C299        C  0.93352682  0.91785074  0.50041705     0.93000
C300        C  0.06759571  0.91428233  0.50048396     0.92140
C301        C  0.99847604  0.84892559  0.50060206     0.84290
C302        C  0.00371436  0.98240251  0.50033711     0.90560
O303        O  0.47181999  0.91470487  0.05111922    -0.73190
O304        O  0.47187575  0.91605671  0.94911486    -0.74170
O305        O  0.47210125  0.86456296  0.99931474    -0.62790
O306        O  0.47154868  0.96644322  0.00089288    -0.71200
O307        O  0.52803450  0.96677850  0.00089480    -0.70760
O308        O  0.52859342  0.86485787  0.99939904    -0.62010
O309        O  0.52837346  0.91634940  0.94918368    -0.74520
O310        O  0.52831612  0.91509518  0.05112316    -0.73300
Cu311      Cu  0.46985593  0.91546218  0.00011222     1.04560
Cu312      Cu  0.53030590  0.91581745  0.00015482     1.04330
C313        C  0.50007501  0.91458047  0.06716008     0.93000
C314        C  0.50014471  0.91612138  0.93310982     0.92140
C315        C  0.50041201  0.84869021  0.99894916     0.84290
C316        C  0.49971231  0.98264519  0.00126635     0.90560
O317        O  0.94915249  0.44342903  0.00091383    -0.73190
O318        O  0.05108043  0.44378741  0.00011424    -0.74170
O319        O  0.99975024  0.44355997  0.94957972    -0.62790
O320        O  0.00060968  0.44347528  0.05156405    -0.71200
O321        O  0.00055246  0.38711819  0.05155031    -0.70760
O322        O  0.00024507  0.38720393  0.94965718    -0.62010
O323        O  0.05124443  0.38742603  0.00043775    -0.74520
O324        O  0.94925605  0.38707246  0.00072255    -0.73300
Cu325      Cu  0.00011310  0.44554394  0.00056368     1.04560
Cu326      Cu  0.00028959  0.38522984  0.00060238     1.04330
C327        C  0.93316218  0.41521056  0.00081181     0.93000
C328        C  0.06719185  0.41567500  0.00010333     0.92140
C329        C  0.00010469  0.41535823  0.93358706     0.84290
C330        C  0.00088988  0.41527993  0.06758924     0.90560
C331        C  0.31151440  0.91438302  0.36172552    -0.06370
C332        C  0.32752749  0.94538115  0.35473845    -0.17500
C333        C  0.35252638  0.94783479  0.32959591     0.10830
C334        C  0.36225979  0.91853859  0.31145857    -0.06300
C335        C  0.34482932  0.88797474  0.31697983    -0.17530
C336        C  0.31944862  0.88561103  0.34187915     0.10860
S337        S  0.37205702  0.98868643  0.32270626    -0.32500
S338        S  0.30052774  0.84458421  0.34928927    -0.32500
H339        H  0.26880920  0.85682600  0.36011977     0.28870
H340        H  0.38030129  0.98314503  0.28836330     0.28860
H341        H  0.32141075  0.96753889  0.36986386     0.19450
H342        H  0.35234872  0.86539226  0.30318477     0.19460
C343        C  0.63880360  0.91765689  0.31115411    -0.06370
C344        C  0.65171439  0.88616331  0.32146084    -0.17500
C345        C  0.67696639  0.88406484  0.34647002     0.10830
C346        C  0.68932294  0.91406569  0.36169143    -0.06300
C347        C  0.67779653  0.94560950  0.34999455    -0.17530
C348        C  0.65281705  0.94771590  0.32472906     0.10860
S349        S  0.69070120  0.84242252  0.35954060    -0.32500
S350        S  0.63835896  0.98932801  0.31235354    -0.32500
H351        H  0.62856485  0.98030180  0.27919135     0.28870
H352        H  0.72353299  0.85222039  0.36975214     0.28860
H353        H  0.64090178  0.86303467  0.31115831     0.19450
H354        H  0.68718571  0.96868634  0.36170752     0.19460
C355        C  0.63877746  0.91641202  0.68897097    -0.06370
C356        C  0.64596100  0.88546312  0.67301192    -0.17500
C357        C  0.67109778  0.88319434  0.64799218     0.10830
C358        C  0.68903129  0.91262753  0.63817255    -0.06300
C359        C  0.68330973  0.94316009  0.65553039    -0.17530
C360        C  0.65842168  0.94534122  0.68093590     0.10860
S361        S  0.67822296  0.84239015  0.62853315    -0.32500
S362        S  0.65072874  0.98633462  0.69972552    -0.32500
H363        H  0.64021033  0.97404651  0.73153412     0.28870
H364        H  0.71253164  0.84819478  0.62021716     0.28860
H365        H  0.63098448  0.86318686  0.67918664     0.19450
H366        H  0.69693882  0.96585125  0.64793825     0.19460
C367        C  0.31183216  0.91260838  0.63812691    -0.06370
C368        C  0.31849864  0.94339988  0.65467926    -0.17500
C369        C  0.34344798  0.94552460  0.68002104     0.10830
C370        C  0.36219348  0.91627141  0.68879655    -0.06300
C371        C  0.35408054  0.88513258  0.67363579    -0.17530
C372        C  0.32888144  0.88294091  0.64865341     0.10860
S373        S  0.35231674  0.98672671  0.69786561    -0.32500
S374        S  0.32064047  0.84192730  0.63005220    -0.32500
H375        H  0.28654029  0.84842768  0.62145830     0.28870
H376        H  0.36289837  0.97490419  0.72983240     0.28860
H377        H  0.30554820  0.96625799  0.64651551     0.19450
H378        H  0.36840263  0.86262447  0.68036569     0.19460
C379        C  0.00838655  0.28148719  0.31688984    -0.06370
C380        C  0.99170585  0.25096666  0.30882340    -0.17500
C381        C  0.98852941  0.22488490  0.33299489     0.10830
C382        C  0.00241743  0.22945503  0.36584566    -0.06300
C383        C  0.02129809  0.25881074  0.37277118    -0.17530
C384        C  0.02513134  0.28433607  0.34857582     0.10860
S385        S  0.96464020  0.18768017  0.32108721    -0.32500
S386        S  0.05248515  0.31943667  0.35962959    -0.32500
H387        H  0.06360992  0.32555699  0.32618818     0.28870
H388        H  0.94892537  0.18309473  0.35285216     0.28860
H389        H  0.97925097  0.24826138  0.28439437     0.19450
H390        H  0.03321813  0.26193344  0.39743509     0.19460
C391        C  0.99692426  0.55250268  0.31388877    -0.06370
C392        C  0.97290115  0.55197945  0.34026709    -0.17500
C393        C  0.97229549  0.57712304  0.36515168     0.10830
C394        C  0.99657201  0.60346903  0.36423549    -0.06300
C395        C  0.01883166  0.60578320  0.33644885    -0.17530
C396        C  0.01953738  0.58038826  0.31141064     0.10860
S397        S  0.94016991  0.57383615  0.39774478    -0.32500
S398        S  0.05189715  0.58352628  0.27915392    -0.32500
H399        H  0.06114938  0.54910567  0.28068904     0.28870
H400        H  0.93766353  0.60892874  0.40373586     0.28860
H401        H  0.95473160  0.53133694  0.34192543     0.19450
H402        H  0.03749104  0.62603326  0.33563061     0.19460
C403        C  0.99939801  0.60108356  0.63492360    -0.06370
C404        C  0.97890510  0.57252004  0.62930185    -0.17500
C405        C  0.97504849  0.54747700  0.65397471     0.10830
C406        C  0.99325668  0.54997840  0.68487143    -0.06300
C407        C  0.01154377  0.57984977  0.69180068    -0.17530
C408        C  0.01484555  0.60545103  0.66712211     0.10860
S409        S  0.94588744  0.51337175  0.64447539    -0.32500
S410        S  0.04096064  0.64160109  0.67746023    -0.32500
H411        H  0.05632940  0.64408957  0.64529062     0.28870
H412        H  0.93602037  0.50796051  0.67842857     0.28860
H413        H  0.96575219  0.56958635  0.60525035     0.19450
H414        H  0.02516644  0.58228941  0.71562821     0.19460
C415        C  0.00503643  0.23117870  0.63186407    -0.06370
C416        C  0.99109405  0.22412667  0.66395630    -0.17500
C417        C  0.99130954  0.24863727  0.68991192     0.10830
C418        C  0.00681961  0.28056740  0.68397286    -0.06300
C419        C  0.02322631  0.28611580  0.65272248    -0.17530
C420        C  0.02231392  0.26210728  0.62665554     0.10860
S421        S  0.96920265  0.23833650  0.72863538    -0.32500
S422        S  0.04424960  0.27104944  0.58720694    -0.32500
H423        H  0.05208130  0.30520844  0.59403128     0.28870
H424        H  0.95240127  0.26974177  0.73081315     0.28860
H425        H  0.97806449  0.20023559  0.66811357     0.19450
H426        H  0.03659246  0.30974976  0.64847384     0.19460
C427        C  0.31087839  0.27727242  0.00076445    -0.06370
C428        C  0.32719503  0.27050036  0.96984102    -0.17500
C429        C  0.35203620  0.24527991  0.96742250     0.10830
C430        C  0.36136614  0.22682051  0.99670173    -0.06300
C431        C  0.34368147  0.23217564  0.02718792    -0.17530
C432        C  0.31842671  0.25715292  0.02950574     0.10860
S433        S  0.37185986  0.23867124  0.92661878    -0.32500
S434        S  0.29937088  0.26442963  0.07053362    -0.32500
H435        H  0.26747033  0.27446812  0.05809917     0.28870
H436        H  0.37974678  0.20427815  0.93192234     0.28860
H437        H  0.32138857  0.28581502  0.94769592     0.19450
H438        H  0.35092147  0.21818849  0.04978161     0.19460
C439        C  0.63758095  0.22694751  0.99673563    -0.06370
C440        C  0.65518281  0.23249902  0.02724744    -0.17500
C441        C  0.68060272  0.25738193  0.02945507     0.10830
C442        C  0.68840839  0.27721718  0.00056852    -0.06300
C443        C  0.67212933  0.27026245  0.96964720    -0.17530
C444        C  0.64713088  0.24512333  0.96734247     0.10860
S445        S  0.69952369  0.26493038  0.07050914    -0.32500
S446        S  0.62742738  0.23822526  0.92651429    -0.32500
H447        H  0.61938529  0.20388788  0.93206018     0.28870
H448        H  0.73159669  0.27453992  0.05813900     0.28860
H449        H  0.64777191  0.21872825  0.04992816     0.19450
H450        H  0.67811515  0.28536031  0.94739229     0.19460
C451        C  0.63850843  0.60414911  0.00294778    -0.06370
C452        C  0.65643856  0.59862984  0.97263668    -0.17500
C453        C  0.68152566  0.57344686  0.97054825     0.10830
C454        C  0.68864025  0.55320987  0.99933656    -0.06300
C455        C  0.67199018  0.56006652  0.03007732    -0.17530
C456        C  0.64735849  0.58553570  0.03227989     0.10860
S457        S  0.70085349  0.56605268  0.92967869    -0.32500
S458        S  0.62718571  0.59230109  0.07288593    -0.32500
H459        H  0.61965931  0.62676632  0.06752686     0.28870
H460        H  0.73282229  0.55661887  0.94238733     0.28860
H461        H  0.64953462  0.61268877  0.94998185     0.19270
H462        H  0.67744234  0.54469588  0.05227308     0.19460
C463        C  0.31316868  0.55252358  0.00144444    -0.06370
C464        C  0.33468513  0.55474387  0.02975795    -0.17500
C465        C  0.35896719  0.58042345  0.03242810     0.10830
C466        C  0.36278064  0.60400650  0.00570555    -0.06300
C467        C  0.33945006  0.60363358  0.97867299    -0.17530
C468        C  0.31475128  0.57797515  0.97614521     0.10860
S469        S  0.38462410  0.58153401  0.07043733    -0.32500
S470        S  0.28813174  0.57757902  0.93882348    -0.32500
H471        H  0.28794620  0.54214960  0.93475628     0.28870
H472        H  0.39029333  0.61678099  0.06981942     0.28860
H473        H  0.33298492  0.53584998  0.04972349     0.19450
H474        H  0.34211090  0.62181820  0.95817199     0.19460
loop_ 
_geom_bond_atom_site_label_1 
_geom_bond_atom_site_label_2 
_geom_bond_distance 
_geom_bond_site_symmetry_2 
_ccdc_geom_bond_type 
N1            N2   1.321   1_554  A
N1            C5   1.341       .  A
N1           Cu9   2.067       .  S
N2            C3   1.349       .  A
N2           Cu8   2.076       .  S
C3            C4   1.385   1_556  A
C3            H6   1.082       .  S
C4            C5   1.381       .  A
C4          C466   1.476       .  S
C5            H7   1.082       .  S
Cu8          N11   2.078       .  S
Cu9          N19   2.067       .  S
Cu10         N12   2.081       .  S
Cu10         N18   2.079       .  S
N11          N12   1.325       .  A
N11          C15   1.345       .  A
N12          C13   1.346       .  A
C13          C14   1.382       .  A
C13          H16   1.082       .  S
C14          C15   1.382       .  A
C14         C315   1.468       .  S
C15          H17   1.082       .  S
N18          N19   1.322   1_556  A
N18          C22   1.349       .  A
N19          C20   1.342       .  A
C20          C21   1.380       .  A
C20          H23   1.082       .  S
C21          C22   1.385   1_554  A
C21         C451   1.474       .  S
C22          H24   1.082       .  S
N25          N26   1.322       .  A
N25          C29   1.343       .  A
N25         Cu33   2.072   1_556  S
N26          C27   1.348       .  A
N26         Cu32   2.076       .  S
C27          C28   1.384       .  A
C27          H30   1.082       .  S
C28          C29   1.381       .  A
C28         C454   1.474       .  S
C29          H31   1.082       .  S
Cu32         N35   2.077   1_556  S
Cu33         N43   2.072       .  S
Cu34         N36   2.074       .  S
Cu34         N42   2.073       .  S
N35          N36   1.324       .  A
N35          C39   1.345       .  A
N36          C37   1.344       .  A
C37          C38   1.381       .  A
C37          H40   1.082       .  S
C38          C39   1.382       .  A
C38         C327   1.466       .  S
C39          H41   1.082       .  S
N42          N43   1.322       .  A
N42          C46   1.348       .  A
N43          C44   1.343       .  A
C44          C45   1.380       .  A
C44          H47   1.082       .  S
C45          C46   1.384       .  A
C45         C442   1.472       .  S
C46          H48   1.082       .  S
N49          N50   1.322   1_556  A
N49          C53   1.342       .  A
N49         Cu57   2.069       .  S
N50          C51   1.348       .  A
N50         Cu56   2.077       .  S
C51          C52   1.384   1_554  A
C51          H54   1.082       .  S
C52          C53   1.380       .  A
C52         C439   1.473       .  S
C53          H55   1.082       .  S
Cu56         N59   2.078       .  S
Cu57         N67   2.069       .  S
Cu58         N60   2.079       .  S
Cu58         N66   2.078       .  S
N59          N60   1.324       .  A
N59          C63   1.345       .  A
N60          C61   1.346       .  A
C61          C62   1.383       .  A
C61          H64   1.082       .  S
C62          C63   1.382       .  A
C62         C316   1.470   1_545  S
C63          H65   1.082       .  S
N66          N67   1.322   1_554  A
N66          C70   1.348       .  A
N67          C68   1.342       .  A
C68          C69   1.380       .  A
C68          H71   1.082       .  S
C69          C70   1.384   1_556  A
C69         C430   1.473       .  S
C70          H72   1.082       .  S
N73          N74   1.322       .  A
N73          C77   1.341   1_556  A
N73         Cu81   2.069   1_556  S
N74          C75   1.349       .  A
N74         Cu80   2.076       .  S
C75          C76   1.385       .  A
C75          H78   1.082       .  S
C76          C77   1.381   1_556  A
C76         C463   1.475   1_556  S
C77          H79   1.082       .  S
Cu80         N83   2.077       .  S
Cu81         N91   2.069       .  S
Cu82         N84   2.073       .  S
Cu82         N90   2.072   1_556  S
N83          N84   1.324       .  A
N83          C87   1.345       .  A
N84          C85   1.344   1_556  A
C85          C86   1.381   1_554  A
C85          H88   1.082       .  S
C86          C87   1.382       .  A
C86         C328   1.465   1_556  S
C87          H89   1.082       .  S
N90          N91   1.321       .  A
N90          C94   1.347       .  A
N91          C92   1.343       .  A
C92          C93   1.380       .  A
C92          H95   1.082       .  S
C93          C94   1.384       .  A
C93         C427   1.472       .  S
C94          H96   1.082       .  S
N97          N98   1.319   1_455  A
N97         C101   1.337       .  A
N97        Cu105   2.050       .  S
N98          C99   1.351       .  A
N98        Cu104   2.079       .  S
C99         C100   1.390       .  A
C99         H102   1.082       .  S
C100        C101   1.381   1_655  A
C100        C406   1.481       .  S
C101        H103   1.082       .  S
Cu104       N107   2.083   1_655  S
Cu105       N115   2.050       .  S
Cu106       N108   2.084       .  S
Cu106       N114   2.081       .  S
N107        N108   1.327       .  A
N107        C111   1.345   1_455  A
N108        C109   1.345       .  A
C109        C110   1.381       .  A
C109        H112   1.082       .  S
C110        C111   1.380   1_455  A
C110        C329   1.466       .  S
C111        H113   1.082       .  S
N114        N115   1.318       .  A
N114        C118   1.351       .  A
N115        C116   1.336       .  A
C116        C117   1.383       .  A
C116        H119   1.082       .  S
C117        C118   1.393       .  A
C117        C418   1.487       .  S
C118        H120   1.081       .  S
N121        N122   1.320       .  A
N121        C125   1.339       .  A
N121       Cu129   2.062       .  S
N122        C123   1.350       .  A
N122       Cu128   2.076   1_455  S
C123        C124   1.388       .  A
C123        H126   1.082   1_455  S
C124        C125   1.382       .  A
C124        C403   1.479   1_455  S
C125        H127   1.082       .  S
Cu128       N131   2.078       .  S
Cu129       N139   2.062       .  S
Cu130       N132   2.075   1_455  S
Cu130       N138   2.073       .  S
N131        N132   1.325       .  A
N131        C135   1.345       .  A
N132        C133   1.344       .  A
C133        C134   1.380       .  A
C133        H136   1.082   1_655  S
C134        C135   1.381       .  A
C134        C301   1.465       .  S
C135        H137   1.082       .  S
N138        N139   1.321       .  A
N138        C142   1.349       .  A
N139        C140   1.340       .  A
C140        C141   1.381       .  A
C140        H143   1.082       .  S
C141        C142   1.385       .  A
C141        C394   1.474   1_455  S
C142        H144   1.082   1_455  S
N145        N146   1.319   1_655  A
N145        C149   1.339       .  A
N145       Cu153   2.058       .  S
N146        C147   1.350       .  A
N146       Cu152   2.075       .  S
C147        C148   1.389   1_455  A
C147        H150   1.082       .  S
C148        C149   1.382       .  A
C148        C391   1.481       .  S
C149        H151   1.082       .  S
Cu152       N155   2.077       .  S
Cu153       N163   2.057       .  S
Cu154       N156   2.083       .  S
Cu154       N162   2.080       .  S
N155        N156   1.326       .  A
N155        C159   1.344       .  A
N156        C157   1.345       .  A
C157        C158   1.382       .  A
C157        H160   1.082       .  S
C158        C159   1.380       .  A
C158        C330   1.466       .  S
C159        H161   1.082       .  S
N162        N163   1.320   1_455  A
N162        C166   1.350       .  A
N163        C164   1.338       .  A
C164        C165   1.382   1_655  A
C164        H167   1.082       .  S
C165        C166   1.389       .  A
C165        C379   1.481       .  S
C166        H168   1.082       .  S
N169        N170   1.320       .  A
N169        C173   1.340       .  A
N169       Cu177   2.064       .  S
N170        C171   1.349   1_655  A
N170       Cu176   2.072   1_655  S
C171        C172   1.387   1_455  A
C171        H174   1.082       .  S
C172        C173   1.382       .  A
C172        C382   1.477   1_655  S
C173        H175   1.082       .  S
Cu176       N179   2.074       .  S
Cu177       N187   2.063       .  S
Cu178       N180   2.075       .  S
Cu178       N186   2.073       .  S
N179        N180   1.325       .  A
N179        C183   1.344       .  A
N180        C181   1.344       .  A
C181        C182   1.380       .  A
C181        H184   1.082       .  S
C182        C183   1.380       .  A
C182        C302   1.464   1_545  S
C183        H185   1.082       .  S
N186        N187   1.320   1_455  A
N186        C190   1.349       .  A
N187        C188   1.340       .  A
C188        C189   1.382       .  A
C188        H191   1.082       .  S
C189        C190   1.386   1_655  A
C189        C415   1.478   1_655  S
C190        H192   1.082       .  S
N193        N194   1.322       .  A
N193        C197   1.343       .  A
N193       Cu201   2.069       .  S
N194        C195   1.347       .  A
N194       Cu200   2.073       .  S
C195        C196   1.383       .  A
C195        H198   1.082       .  S
C196        C197   1.380       .  A
C196        C370   1.470       .  S
C197        H199   1.082       .  S
Cu200       N203   2.074       .  S
Cu201       N211   2.069       .  S
Cu202       N204   2.075       .  S
Cu202       N210   2.074       .  S
N203        N204   1.324       .  A
N203        C207   1.345       .  A
N204        C205   1.345       .  A
C205        C206   1.382       .  A
C205        H208   1.082       .  S
C206        C207   1.382       .  A
C206        C314   1.467       .  S
C207        H209   1.082       .  S
N210        N211   1.322       .  A
N210        C214   1.348       .  A
N211        C212   1.343       .  A
C212        C213   1.380       .  A
C212        H215   1.082       .  S
C213        C214   1.383       .  A
C213        C355   1.471       .  S
C214        H216   1.082       .  S
N217        N218   1.322       .  A
N217        C221   1.342       .  A
N217       Cu225   2.070       .  S
N218        C219   1.348       .  A
N218       Cu224   2.075       .  S
C219        C220   1.383       .  A
C219        H222   1.082       .  S
C220        C221   1.380       .  A
C220        C358   1.472       .  S
C221        H223   1.082       .  S
Cu224       N227   2.076       .  S
Cu225       N235   2.070       .  S
Cu226       N228   2.076       .  S
Cu226       N234   2.075       .  S
N227        N228   1.324       .  A
N227        C231   1.345       .  A
N228        C229   1.345       .  A
C229        C230   1.382       .  A
C229        H232   1.082       .  S
C230        C231   1.382       .  A
C230        C299   1.468       .  S
C231        H233   1.082       .  S
N234        N235   1.322       .  A
N234        C238   1.348       .  A
N235        C236   1.343       .  A
C236        C237   1.380       .  A
C236        H239   1.082       .  S
C237        C238   1.383       .  A
C237        C346   1.470       .  S
C238        H240   1.082       .  S
N241        N242   1.322       .  A
N241        C245   1.342       .  A
N241       Cu249   2.070       .  S
N242        C243   1.348       .  A
N242       Cu248   2.074       .  S
C243        C244   1.383       .  A
C243        H246   1.082       .  S
C244        C245   1.380       .  A
C244        C334   1.471       .  S
C245        H247   1.082       .  S
Cu248       N251   2.075       .  S
Cu249       N259   2.070       .  S
Cu250       N252   2.075       .  S
Cu250       N258   2.074       .  S
N251        N252   1.324       .  A
N251        C255   1.345       .  A
N252        C253   1.345       .  A
C253        C254   1.382       .  A
C253        H256   1.082       .  S
C254        C255   1.382       .  A
C254        C313   1.467       .  S
C255        H257   1.082       .  S
N258        N259   1.322       .  A
N258        C262   1.348       .  A
N259        C260   1.343       .  A
C260        C261   1.380       .  A
C260        H263   1.082       .  S
C261        C262   1.383       .  A
C261        C343   1.470       .  S
C262        H264   1.082       .  S
N265        N266   1.322       .  A
N265        C269   1.342       .  A
N265       Cu273   2.070       .  S
N266        C267   1.347       .  A
N266       Cu272   2.072       .  S
C267        C268   1.382       .  A
C267        H270   1.082       .  S
C268        C269   1.380       .  A
C268        C367   1.470       .  S
C269        H271   1.082       .  S
Cu272       N275   2.073       .  S
Cu273       N283   2.070       .  S
Cu274       N276   2.073       .  S
Cu274       N282   2.073       .  S
N275        N276   1.324       .  A
N275        C279   1.345       .  A
N276        C277   1.344       .  A
C277        C278   1.381       .  A
C277        H280   1.082       .  S
C278        C279   1.381       .  A
C278        C300   1.466       .  S
C279        H281   1.082       .  S
N282        N283   1.322       .  A
N282        C286   1.347       .  A
N283        C284   1.343       .  A
C284        C285   1.380       .  A
C284        H287   1.082       .  S
C285        C286   1.383       .  A
C285        C331   1.471       .  S
C286        H288   1.082       .  S
O289       Cu297   2.008   1_655  S
O289        C299   1.277       .  A
O290       Cu297   2.005       .  S
O290        C300   1.277       .  A
O291       Cu297   2.004   1_655  S
O291        C301   1.277       .  A
O292       Cu297   2.003       .  S
O292        C302   1.277       .  A
O293       Cu298   2.004       .  S
O293        C302   1.277       .  A
O294       Cu298   2.007   1_655  S
O294        C301   1.277       .  A
O295       Cu298   2.007       .  S
O295        C300   1.277       .  A
O296       Cu298   2.009   1_655  S
O296        C299   1.278       .  A
Cu297      Cu298   2.377       .  S
O303       Cu311   2.008       .  S
O303        C313   1.277       .  A
O304       Cu311   2.008   1_556  S
O304        C314   1.277       .  A
O305       Cu311   2.008   1_556  S
O305        C315   1.278       .  A
O306       Cu311   2.011       .  S
O306        C316   1.278       .  A
O307       Cu312   2.011       .  S
O307        C316   1.278       .  A
O308       Cu312   2.010   1_556  S
O308        C315   1.278       .  A
O309       Cu312   2.007   1_556  S
O309        C314   1.277       .  A
O310       Cu312   2.007       .  S
O310        C313   1.277       .  A
Cu311      Cu312   2.377       .  S
O317       Cu325   2.005   1_655  S
O317        C327   1.277       .  A
O318       Cu325   2.005       .  S
O318        C328   1.277       .  A
O319       Cu325   2.007   1_656  S
O319        C329   1.277   1_655  A
O320       Cu325   2.008       .  S
O320        C330   1.278       .  A
O321       Cu326   2.005       .  S
O321        C330   1.277       .  A
O322       Cu326   2.005   1_556  S
O322        C329   1.277       .  A
O323       Cu326   2.005       .  S
O323        C328   1.277       .  A
O324       Cu326   2.008   1_655  S
O324        C327   1.277       .  A
Cu325      Cu326   2.377       .  S
C331        C332   1.401       .  A
C331        C336   1.412       .  A
C332        C333   1.398       .  A
C332        H341   1.084       .  S
C333        C334   1.411       .  A
C333        S337   1.804       .  S
C334        C335   1.402       .  A
C335        C336   1.401       .  A
C335        H342   1.084       .  S
C336        S338   1.803       .  S
S337        H340   1.406       .  S
S338        H339   1.404       .  S
C343        C344   1.401       .  A
C343        C348   1.411       .  A
C344        C345   1.400       .  A
C344        H353   1.084       .  S
C345        C346   1.411       .  A
C345        S349   1.803       .  S
C346        C347   1.401       .  A
C347        C348   1.400       .  A
C347        H354   1.084       .  S
C348        S350   1.803       .  S
S349        H352   1.405       .  S
S350        H351   1.406       .  S
C355        C356   1.401       .  A
C355        C360   1.412       .  A
C356        C357   1.398       .  A
C356        H365   1.084       .  S
C357        C358   1.411       .  A
C357        S361   1.803       .  S
C358        C359   1.402       .  A
C359        C360   1.401       .  A
C359        H366   1.084       .  S
C360        S362   1.803       .  S
S361        H364   1.406       .  S
S362        H363   1.404       .  S
C367        C368   1.402       .  A
C367        C372   1.411       .  A
C368        C369   1.401       .  A
C368        H377   1.084       .  S
C369        C370   1.412       .  A
C369        S373   1.803       .  S
C370        C371   1.401       .  A
C371        C372   1.398       .  A
C371        H378   1.084       .  S
C372        S374   1.803       .  S
S373        H376   1.404       .  S
S374        H375   1.406       .  S
C379        C380   1.406   1_455  A
C379        C384   1.414       .  A
C380        C381   1.406       .  A
C380        H389   1.084       .  S
C381        C382   1.414   1_655  A
C381        S385   1.802       .  S
C382        C383   1.401       .  A
C383        C384   1.393       .  A
C383        H390   1.084       .  S
C384        S386   1.804       .  S
S385        H388   1.406       .  S
S386        H387   1.407       .  S
C391        C392   1.403       .  A
C391        C396   1.416   1_655  A
C392        C393   1.393       .  A
C392        H401   1.084       .  S
C393        C394   1.410       .  A
C393        S397   1.804       .  S
C394        C395   1.403   1_655  A
C395        C396   1.405       .  A
C395        H402   1.084       .  S
C396        S398   1.801       .  S
S397        H400   1.407       .  S
S398        H399   1.406       .  S
C403        C404   1.401       .  A
C403        C408   1.415   1_655  A
C404        C405   1.392       .  A
C404        H413   1.084       .  S
C405        C406   1.414       .  A
C405        S409   1.805       .  S
C406        C407   1.405   1_655  A
C407        C408   1.406       .  A
C407        H414   1.084       .  S
C408        S410   1.802       .  S
S409        H412   1.407       .  S
S410        H411   1.406       .  S
C415        C416   1.404   1_455  A
C415        C420   1.410       .  A
C416        C417   1.406       .  A
C416        H425   1.084       .  S
C417        C418   1.417   1_655  A
C417        S421   1.800       .  S
C418        C419   1.405       .  A
C419        C420   1.396       .  A
C419        H426   1.082       .  S
C420        S422   1.810       .  S
S421        H424   1.406       .  S
S422        H423   1.407       .  S
C427        C428   1.401   1_554  A
C427        C432   1.413       .  A
C428        C429   1.398       .  A
C428        H437   1.084       .  S
C429        C430   1.411       .  A
C429        S433   1.803       .  S
C430        C431   1.402   1_556  A
C431        C432   1.402       .  A
C431        H438   1.084       .  S
C432        S434   1.803       .  S
S433        H436   1.406       .  S
S434        H435   1.403       .  S
C439        C440   1.402   1_556  A
C439        C444   1.411       .  A
C440        C441   1.402       .  A
C440        H449   1.084       .  S
C441        C442   1.413       .  A
C441        S445   1.802       .  S
C442        C443   1.401   1_554  A
C443        C444   1.398       .  A
C443        H450   1.084       .  S
C444        S446   1.803       .  S
S445        H448   1.403       .  S
S446        H447   1.406       .  S
C451        C452   1.402   1_554  A
C451        C456   1.411       .  A
C452        C453   1.403       .  A
C452        H461   1.084       .  S
C453        C454   1.413       .  A
C453        S457   1.802       .  S
C454        C455   1.402   1_556  A
C455        C456   1.398       .  A
C455        H462   1.084       .  S
C456        S458   1.803       .  S
S457        H460   1.403       .  S
S458        H459   1.406       .  S
C463        C464   1.401       .  A
C463        C468   1.414   1_554  A
C464        C465   1.394       .  A
C464        H473   1.084       .  S
C465        C466   1.411       .  A
C465        S469   1.804       .  S
C466        C467   1.404   1_554  A
C467        C468   1.405       .  A
C467        H474   1.084       .  S
C468        S470   1.803       .  S
S469        H472   1.407       .  S
S470        H471   1.406       .  S
