geometry optimzed in LAMMPS
_audit_creation_date              2020-12-01 
_audit_creation_method            'lammps2cif' 
_symmetry_space_group_name_H-M    'P1' 
_symmetry_Int_Tables_number       1 
_symmetry_cell_setting            triclinic 
loop_ 
_symmetry_equiv_pos_as_xyz 
  x,y,z 
_cell_length_a                    35.50363205 
_cell_length_b                    35.09212192462194 
_cell_length_c                    36.23155019061428 
_cell_angle_alpha                 90.18163086100843 
_cell_angle_beta                  89.56340100574494 
_cell_angle_gamma                 89.22577274858992 
loop_ 
_atom_site_label 
_atom_site_type_symbol 
_atom_site_fract_x 
_atom_site_fract_y 
_atom_site_fract_z 
_atom_site_charge 
C1          C  0.78957421  0.47599347  0.03493894     0.89500
C2          C  0.76444067  0.44155497  0.02687000    -0.50700
C3          C  0.73708897  0.44822461  0.00114738     0.12500
C4          C  0.73739980  0.48920082  0.98593656     0.23400
C5          C  0.80517886  0.48755268  0.99683561    -0.51400
C6          C  0.77778890  0.49372757  0.97079691     0.12600
C7          C  0.76169627  0.50779059  0.04597519    -0.51000
C8          C  0.73455586  0.51520683  0.02045102     0.13100
H9          H  0.76799218  0.41459021  0.04101112     0.17700
H10         H  0.71511398  0.49479572  0.96521362     0.03400
H11         H  0.83508075  0.48725059  0.99032658     0.18000
H12         H  0.76260589  0.52243906  0.07241656     0.17700
C13         C  0.51118211  0.77092289  0.04171650     0.89500
C14         C  0.54012234  0.73814406  0.03873368    -0.50700
C15         C  0.53218572  0.71171110  0.01212608     0.12500
C16         C  0.49592206  0.72104661  0.99021274     0.23400
C17         C  0.50984126  0.78800875  0.00270323    -0.51400
C18         C  0.50214057  0.76199242  0.97536631     0.12600
C19         C  0.47326104  0.75097059  0.04675480    -0.51000
C20         C  0.46471593  0.72515080  0.02004112     0.13100
H21         H  0.56355553  0.73483067  0.05760711     0.17700
H22         H  0.48982973  0.69971677  0.96845249     0.03400
H23         H  0.51408502  0.81808387  0.99747690     0.18000
H24         H  0.45483255  0.75636863  0.07034268     0.17700
C25         C  0.02277210  0.52061611  0.76951926     0.89500
C26         C  0.01848521  0.54575594  0.73510576    -0.50700
C27         C  0.99021602  0.53476576  0.71201805     0.12500
C28         C  0.96830539  0.49980969  0.72607507     0.23400
C29         C  0.98377911  0.52180271  0.78810388    -0.51400
C30         C  0.95496523  0.51084844  0.76557721     0.12600
C31         C  0.02687550  0.47965288  0.75460680    -0.51000
C32         C  0.99878724  0.46847503  0.73164028     0.13100
H33         H  0.03774006  0.56854793  0.72841190     0.17700
H34         H  0.94487519  0.49159887  0.70778166     0.03400
H35         H  0.97979791  0.52884166  0.81707877     0.18000
H36         H  0.05055041  0.46110910  0.76143231     0.17700
C37         C  0.50261347  0.01073829  0.76751613     0.89500
C38         C  0.47417407  0.00396178  0.73657736    -0.50700
C39         C  0.48231461  0.97361270  0.71432207     0.12500
C40         C  0.51831732  0.95171071  0.72577947     0.23400
C41         C  0.50423494  0.97300782  0.78877193    -0.51400
C42         C  0.51226365  0.94173108  0.76712062     0.12600
C43         C  0.54090228  0.01317724  0.74755878    -0.51000
C44         C  0.54941445  0.98220315  0.72547697     0.13100
H45         H  0.45090300  0.02346917  0.73091725     0.17700
H46         H  0.52476147  0.92663368  0.70791260     0.03400
H47         H  0.49781890  0.97112017  0.81804998     0.18000
H48         H  0.55914544  0.03742415  0.75095574     0.17700
C49         C  0.73314809  0.99088162  0.52779821     0.89500
C50         C  0.76050655  0.01963059  0.50998371    -0.50700
C51         C  0.77515107  0.00800388  0.47667094     0.12500
C52         C  0.75993016  0.96899623  0.46387642     0.23400
C53         C  0.70273646  0.98524831  0.49846328    -0.51400
C54         C  0.71642937  0.97470041  0.46448944     0.12600
C55         C  0.75493986  0.95300028  0.52895601    -0.51000
C56         C  0.76906313  0.94103627  0.49571077     0.13100
H57         H  0.76469240  0.04787299  0.52123991     0.17700
H58         H  0.77125844  0.95939074  0.43677977     0.03400
H59         H  0.67310953  0.99152975  0.50359260     0.18000
H60         H  0.75887079  0.93690050  0.55423734     0.17700
C61         C  0.04705005  0.76505694  0.48057620     0.89500
C62         C  0.05619266  0.74154510  0.44582936    -0.50700
C63         C  0.02861968  0.71696075  0.43553281     0.12500
C64         C  0.99380607  0.71837748  0.46157555     0.23400
C65         C  0.00928582  0.78525490  0.47242462    -0.51400
C66         C  0.98099831  0.76088026  0.46276541     0.12600
C67         C  0.03744472  0.73521711  0.51011138    -0.51000
C68         C  0.00994996  0.71045125  0.50022559     0.13100
H69         H  0.08296910  0.74334804  0.43125987     0.17700
H70         H  0.97100691  0.69853603  0.45417748     0.03400
H71         H  0.00490702  0.81566292  0.47638940     0.18000
H72         H  0.05285342  0.73239361  0.53577065     0.17700
C73         C  0.21179385  0.48695265  0.00645195     0.89500
C74         C  0.23490064  0.52053277  0.02002685    -0.50700
C75         C  0.26059786  0.53381348  0.99503549     0.12500
C76         C  0.26100123  0.51113281  0.95812363     0.23400
C77         C  0.19404052  0.50049195  0.97024950    -0.51400
C78         C  0.21967249  0.51292399  0.94448751     0.12600
C79         C  0.24117287  0.45685539  0.99466351    -0.51000
C80         C  0.26696384  0.46892864  0.96928260     0.13100
H81         H  0.23134369  0.53267398  0.04748323     0.17700
H82         H  0.28189748  0.52105028  0.93747795     0.03400
H83         H  0.16416298  0.49786026  0.96492796     0.18000
H84         H  0.24191629  0.42838150  0.00631186     0.17700
O85         O  0.93306498  0.60571542  0.06000193    -0.69900
O86         O  0.00770833  0.59518653  0.97966252    -0.70900
O87         O  0.01132504  0.59728391  0.05666982    -0.59500
O88         O  0.93004221  0.60438899  0.98319363    -0.67900
O89         O  0.93506832  0.66749311  0.98124688    -0.67500
O90         O  0.01819144  0.66019025  0.05641444    -0.58700
O91         O  0.01434083  0.65807851  0.97745793    -0.71200
O92         O  0.93737566  0.66887497  0.06045741    -0.70000
Cu93       Cu  0.97028639  0.59866417  0.02013108     1.04600
Cu94       Cu  0.97643186  0.66615608  0.01904750     1.04300
C95         C  0.92302662  0.63812658  0.07273492     0.96300
C96         C  0.02220650  0.62461596  0.96528351     0.95400
C97         C  0.02810026  0.62707899  0.06757025     0.87600
C98         C  0.92058919  0.63658031  0.96977341     0.93900
N99         N  0.85184381  0.53012899  0.85878687    -0.00400
C100        C  0.86590785  0.51196440  0.82858273     0.02200
C101        C  0.84872208  0.47679209  0.82552990    -0.20700
C102        C  0.82467174  0.47337341  0.85568929    -0.20900
C103        C  0.82796520  0.50646371  0.87626141     0.02100
H104        H  0.85539663  0.45444750  0.80582388     0.15800
H105        H  0.80963374  0.44800151  0.86354254     0.15900
C106        C  0.01536271  0.46340881  0.20501919     0.89500
C107        C  0.01254759  0.42629818  0.22693310    -0.50700
C108        C  0.99221466  0.42886514  0.25904526     0.12500
C109        C  0.97576425  0.46954080  0.26600657     0.23400
C110        C  0.97426264  0.47624980  0.19881207    -0.51400
C111        C  0.95338728  0.47969588  0.23070730     0.12600
C112        C  0.03099848  0.49215892  0.23298333    -0.51000
C113        C  0.01001486  0.49608919  0.26440067     0.13100
H114        H  0.02639180  0.40002553  0.21795657     0.17700
H115        H  0.95918143  0.47264191  0.29195558     0.03400
H116        H  0.96399733  0.48490248  0.17196533     0.18000
H117        H  0.05653861  0.50824001  0.22903976     0.17700
N118        N  0.86891783  0.51048592  0.14252381    -0.00400
C119        C  0.86178872  0.48488121  0.11555429     0.02200
C120        C  0.87564540  0.44942574  0.12623751    -0.20700
C121        C  0.89158251  0.45404518  0.16081870    -0.20900
C122        C  0.88710317  0.49213836  0.17008769     0.02100
H123        H  0.87356665  0.42284005  0.11124579     0.15800
H124        H  0.90295818  0.43164330  0.17808464     0.15900
N125        N  0.12840266  0.54006472  0.84239365    -0.00400
C126        C  0.12525544  0.52866125  0.80674771     0.02200
C127        C  0.15840527  0.51057370  0.79585098    -0.20700
C128        C  0.18200180  0.51009887  0.82600722    -0.20900
C129        C  0.16266311  0.52827983  0.85449825     0.02100
H130        H  0.16412427  0.49730697  0.76934763     0.15800
H131        H  0.20931386  0.49615761  0.82728596     0.15900
O132        O  0.55775561  0.61993856  0.92313211    -0.69900
O133        O  0.47577413  0.55103530  0.95516592    -0.70900
O134        O  0.55399363  0.55038000  0.96214330    -0.59500
O135        O  0.47870815  0.62012795  0.91637330    -0.67900
O136        O  0.48312046  0.58950988  0.86260630    -0.67500
O137        O  0.55968012  0.51953573  0.90859556    -0.58700
O138        O  0.48112285  0.51990526  0.90175337    -0.71200
O139        O  0.56399379  0.58965822  0.86936867    -0.70000
Cu140      Cu  0.51648630  0.58683650  0.94079909     1.04600
Cu141      Cu  0.52230446  0.55383639  0.88344869     1.04300
C142        C  0.57457707  0.61503361  0.89221856     0.96300
C143        C  0.46633455  0.52395449  0.93379728     0.95400
C144        C  0.56718675  0.52278714  0.94286631     0.87600
C145        C  0.46749227  0.61453305  0.88347946     0.93900
N146        N  0.64368732  0.62405672  0.00169301    -0.00400
C147        C  0.65374715  0.59041297  0.01735698     0.02200
C148        C  0.62813183  0.58161768  0.04507158    -0.20700
C149        C  0.60118258  0.61032226  0.04560846    -0.20900
C150        C  0.61130733  0.63588385  0.01848323     0.02100
H151        H  0.62807736  0.55638980  0.06215681     0.15800
H152        H  0.57691322  0.61230130  0.06379670     0.15900
C153        C  0.49113549  0.23697339  0.01819411     0.89500
C154        C  0.45988842  0.26564094  0.00716100    -0.50700
C155        C  0.46405822  0.28046908  0.97251207     0.12500
C156        C  0.49977695  0.26567891  0.95231283     0.23400
C157        C  0.49169946  0.20705850  0.98690320    -0.51400
C158        C  0.49591146  0.22209756  0.95236114     0.12600
C159        C  0.52782346  0.25899167  0.01346290    -0.51000
C160        C  0.53270763  0.27389943  0.97889427     0.13100
H161        H  0.43512603  0.27141221  0.02416696     0.17700
H162        H  0.50351898  0.27776063  0.92423074     0.03400
H163        H  0.48685320  0.17696147  0.99159049     0.18000
H164        H  0.54897781  0.26083877  0.03486785     0.17700
O165        O  0.61104130  0.96065332  0.96748003    -0.69900
O166        O  0.61216279  0.04279462  0.04121087    -0.70900
O167        O  0.61214543  0.03960705  0.96476071    -0.59500
O168        O  0.61113911  0.96361115  0.04379834    -0.67900
O169        O  0.67375326  0.96055247  0.04468394    -0.67500
O170        O  0.67479268  0.03898233  0.96266146    -0.58700
O171        O  0.67480354  0.04282585  0.04179844    -0.71200
O172        O  0.67366453  0.95754900  0.96594619    -0.70000
Cu173      Cu  0.60971964  0.00178090  0.00441971     1.04600
Cu174      Cu  0.67681726  0.99998220  0.00386384     1.04300
C175        C  0.64157028  0.94601535  0.95510300     0.96300
C176        C  0.64296758  0.05617228  0.05289583     0.95400
C177        C  0.64296217  0.05099602  0.95083123     0.87600
C178        C  0.64160901  0.94943425  0.05623339     0.93900
N179        N  0.53202270  0.84409929  0.86589488    -0.00400
C180        C  0.51458834  0.85558177  0.83468375     0.02200
C181        C  0.48374917  0.83259298  0.82879211    -0.20700
C182        C  0.48205306  0.80728914  0.85822740    -0.20900
C183        C  0.51197054  0.81555088  0.88121008     0.02100
H184        H  0.46288553  0.83585665  0.80737961     0.15800
H185        H  0.45978543  0.78722021  0.86341556     0.15900
C186        C  0.49761214  0.04425110  0.22162909     0.89500
C187        C  0.53478255  0.04882991  0.24212682    -0.50700
C188        C  0.54388491  0.01939576  0.26525634     0.12500
C189        C  0.51351555  0.98780020  0.26625080     0.23400
C190        C  0.50117285  0.00544505  0.20206628    -0.51400
C191        C  0.50899529  0.97557538  0.22534987     0.12600
C192        C  0.46808599  0.03801150  0.25216407    -0.51000
C193        C  0.47593970  0.00863862  0.27558855     0.13100
H194        H  0.55290239  0.07317957  0.23800541     0.17700
H195        H  0.51990682  0.96369002  0.28502479     0.03400
H196        H  0.49507065  0.00162889  0.17297558     0.18000
H197        H  0.44319667  0.05608621  0.25553852     0.17700
N198        N  0.51777584  0.86679270  0.13543823    -0.00400
C199        C  0.49126172  0.84420095  0.12035149     0.02200
C200        C  0.45814633  0.84803431  0.14045008    -0.20700
C201        C  0.46455237  0.87408527  0.16826761    -0.20900
C202        C  0.50131454  0.88602347  0.16397078     0.02100
H203        H  0.43137840  0.83529095  0.13401286     0.15800
H204        H  0.44347615  0.88589536  0.18693279     0.15900
N205        N  0.51771554  0.11488432  0.86367929    -0.00400
C206        C  0.49705915  0.09457803  0.83950170     0.02200
C207        C  0.46019174  0.10849965  0.84024268    -0.20700
C208        C  0.45873512  0.13779014  0.86587367    -0.20900
C209        C  0.49456195  0.14079581  0.88019282     0.02100
H210        H  0.43632296  0.09777159  0.82526029     0.15800
H211        H  0.43378570  0.15354338  0.87458182     0.15900
O212        O  0.83968293  0.58618535  0.45937935    -0.69900
O213        O  0.83936397  0.51539951  0.54696564    -0.70900
O214        O  0.83478921  0.59684057  0.53882543    -0.59500
O215        O  0.84430443  0.50600997  0.46971309    -0.67900
O216        O  0.90665792  0.50982670  0.47337330    -0.67500
O217        O  0.89733002  0.59870667  0.54017575    -0.58700
O218        O  0.90179340  0.51949846  0.54928493    -0.71200
O219        O  0.90210774  0.58841713  0.46341383    -0.70000
Cu220      Cu  0.83706809  0.55137542  0.50372297     1.04600
Cu221      Cu  0.90392725  0.55456253  0.50675084     1.04300
C222        C  0.87162207  0.59656706  0.44675449     0.96300
C223        C  0.87104467  0.50503074  0.56035409     0.95400
C224        C  0.86524028  0.61129274  0.55083531     0.87600
C225        C  0.87731225  0.49354138  0.46146694     0.93900
N226        N  0.98532561  0.63619520  0.61506455    -0.00400
C227        C  0.00200693  0.64009278  0.58153864     0.02200
C228        C  0.02381501  0.60819444  0.57328853    -0.20700
C229        C  0.02016558  0.58373848  0.60283337    -0.20900
C230        C  0.99617059  0.60155644  0.62801780     0.02100
H231        H  0.04146055  0.60374901  0.54912850     0.15800
H232        H  0.03461494  0.55662851  0.60616738     0.15900
O233        O  0.43567004  0.84155278  0.46523084    -0.69900
O234        O  0.51146907  0.85343518  0.54738247    -0.70900
O235        O  0.43322769  0.83322953  0.54460313    -0.59500
O236        O  0.51299664  0.86048886  0.46979682    -0.67900
O237        O  0.49716142  0.92178854  0.47561833    -0.67500
O238        O  0.41856154  0.89488356  0.54906113    -0.58700
O239        O  0.49494173  0.91462464  0.55214982    -0.71200
O240        O  0.42101620  0.90300601  0.47204433    -0.70000
Cu241      Cu  0.47367570  0.84474494  0.50666215     1.04600
Cu242      Cu  0.45712026  0.91048379  0.51250567     1.04300
C243        C  0.41768827  0.87147191  0.45501834     0.96300
C244        C  0.51593038  0.88659521  0.56131476     0.95400
C245        C  0.41374047  0.86042529  0.55887359     0.87600
C246        C  0.51779739  0.89543691  0.46158936     0.93900
N247        N  0.64794115  0.98268490  0.63997873    -0.00400
C248        C  0.67944681  0.99562799  0.62282485     0.02200
C249        C  0.69459515  0.02479827  0.64364651    -0.20700
C250        C  0.67085725  0.03055054  0.67349636    -0.20900
C251        C  0.64216425  0.00451270  0.67061148     0.02100
H252        H  0.71941419  0.04120426  0.63749994     0.15800
H253        H  0.67344352  0.05253952  0.69430242     0.15900
C254        C  0.23025552  0.04066702  0.51154478     0.89500
C255        C  0.24962067  0.04971491  0.47473568    -0.50700
C256        C  0.27329661  0.02156921  0.46165810     0.12500
C257        C  0.27523766  0.98629535  0.48734030     0.23400
C258        C  0.21033070  0.00278108  0.50508617    -0.51400
C259        C  0.23370941  0.97388499  0.49278371     0.12600
C260        C  0.26281005  0.03065186  0.53778809    -0.51000
C261        C  0.28662877  0.00258881  0.52517514     0.13100
H262        H  0.24563807  0.07674281  0.46065431     0.17700
H263        H  0.29430122  0.96302702  0.47755812     0.03400
H264        H  0.18082229  0.99872775  0.51188807     0.18000
H265        H  0.26795240  0.04613198  0.56323675     0.17700
O266        O  0.95008563  0.00786791  0.39687513    -0.69900
O267        O  0.03008515  0.08397029  0.40421411    -0.70900
O268        O  0.95218765  0.08758923  0.39778298    -0.59500
O269        O  0.02777268  0.00464406  0.40323770    -0.67900
O270        O  0.03489540  0.00478955  0.34218001    -0.67500
O271        O  0.95616874  0.08929606  0.33653139    -0.58700
O272        O  0.03688457  0.08629583  0.34317995    -0.71200
O273        O  0.95551471  0.00693371  0.33566495    -0.70000
Cu274      Cu  0.98976556  0.04620821  0.40242416     1.04600
Cu275      Cu  0.99598625  0.04705827  0.33693719     1.04300
C276        C  0.94140107  0.99405074  0.36563012     0.96300
C277        C  0.04647701  0.09672583  0.37556223     0.95400
C278        C  0.94196041  0.10142875  0.36697523     0.87600
C279        C  0.04291669  0.99127382  0.37392636     0.93900
N280        N  0.87090602  0.85284321  0.44804612    -0.00400
C281        C  0.83840751  0.85842368  0.46731473     0.02200
C282        C  0.83365404  0.82832129  0.49155425    -0.20700
C283        C  0.86471489  0.80445205  0.48736164    -0.20900
C284        C  0.88773668  0.82048869  0.46069516     0.02100
H285        H  0.81098920  0.82451129  0.51124400     0.15800
H286        H  0.87081612  0.77953993  0.50389860     0.15900
C287        C  0.97064269  0.25884303  0.54705157     0.89500
C288        C  0.00796746  0.23641153  0.54533511    -0.50700
C289        C  0.01280552  0.21357469  0.51504550     0.12500
C290        C  0.97857099  0.21516878  0.48893031     0.23400
C291        C  0.96924504  0.28089208  0.51016605    -0.51400
C292        C  0.97339199  0.25796485  0.47948705     0.12600
C293        C  0.94007537  0.22834847  0.54360551    -0.51000
C294        C  0.94386099  0.20523090  0.51311414     0.13100
H295        H  0.02825265  0.23779126  0.56753465     0.17700
H296        H  0.98208218  0.19650223  0.46428015     0.03400
H297        H  0.96662796  0.31160233  0.50845349     0.18000
H298        H  0.91745053  0.22589409  0.56368364     0.17700
N299        N  0.84934542  0.11936963  0.48287028    -0.00400
C300        C  0.83166334  0.08525359  0.48597377     0.02200
C301        C  0.83588258  0.07189675  0.52164991    -0.20700
C302        C  0.85596064  0.09913793  0.54075953    -0.20900
C303        C  0.86496457  0.12755291  0.51594433     0.02100
H304        H  0.82829961  0.04428001  0.53221560     0.15800
H305        H  0.86530546  0.09702127  0.56904398     0.15900
N306        N  0.14003017  0.87201297  0.46667732    -0.00400
C307        C  0.12909917  0.83892672  0.48223501     0.02200
C308        C  0.15380353  0.82974004  0.51049935    -0.20700
C309        C  0.17994674  0.85872289  0.51226226    -0.20900
C310        C  0.17040180  0.88475039  0.48513383     0.02100
H311        H  0.15279490  0.80520240  0.52845317     0.15800
H312        H  0.20202667  0.86142988  0.53248691     0.15900
N313        N  0.37206026  0.97177923  0.63013909    -0.00400
C314        C  0.36264859  0.99221106  0.59981177     0.02200
C315        C  0.39015296  0.01870512  0.59222881    -0.20700
C316        C  0.41775603  0.01375689  0.61849261    -0.20900
C317        C  0.40611870  0.98436786  0.64106741     0.02100
H318        H  0.38969675  0.03998945  0.57068533     0.15800
H319        H  0.44287347  0.03058183  0.62151862     0.15900
N320        N  0.96184605  0.37121297  0.63668767    -0.00400
C321        C  0.98189518  0.38115187  0.66680317     0.02200
C322        C  0.00813187  0.35257412  0.67415037    -0.20700
C323        C  0.00386664  0.32484780  0.64725712    -0.20900
C324        C  0.97523145  0.33721517  0.62417949     0.02100
H325        H  0.02898218  0.35207028  0.69574635     0.15800
H326        H  0.02121589  0.29946195  0.64389255     0.15900
N327        N  0.12798000  0.14364428  0.50715042    -0.00400
C328        C  0.11026415  0.16598700  0.53265124     0.02200
C329        C  0.12530325  0.15900839  0.56701445    -0.20700
C330        C  0.15217665  0.13059863  0.56259747    -0.20900
C331        C  0.15331374  0.12132927  0.52530483     0.02100
H332        H  0.11703020  0.17255765  0.59276144     0.15800
H333        H  0.16829773  0.11787851  0.58466311     0.15900
N334        N  0.64324237  0.98061539  0.35816201    -0.00400
C335        C  0.67948508  0.99066076  0.36443108     0.02200
C336        C  0.69188740  0.01293162  0.33549781    -0.20700
C337        C  0.66214319  0.01722522  0.31142028    -0.20900
C338        C  0.63220485  0.99711323  0.32612086     0.02100
H339        H  0.71949761  0.02529125  0.33244679     0.15800
H340        H  0.66277735  0.03312315  0.28590948     0.15900
N341        N  0.99603327  0.61231525  0.34558209    -0.00400
C342        C  0.02087733  0.63492908  0.36320346     0.02200
C343        C  0.05723201  0.62318255  0.35425926    -0.20700
C344        C  0.05422571  0.59200767  0.33125156    -0.20900
C345        C  0.01607122  0.58523965  0.32681334     0.02100
H346        H  0.08332609  0.63464146  0.36438675     0.15800
H347        H  0.07774762  0.57600961  0.31969937     0.15900
N348        N  0.64353953  0.35989787  0.98711002    -0.00400
C349        C  0.68133488  0.35400207  0.98769811     0.02200
C350        C  0.68911222  0.31553884  0.98318264    -0.20700
C351        C  0.65494927  0.29764532  0.97892802    -0.20900
C352        C  0.62725047  0.32568005  0.98166589     0.02100
H353        H  0.71653801  0.30177847  0.98411767     0.15800
H354        H  0.65075444  0.26725250  0.97655794     0.15900
N355        N  0.51809605  0.14515736  0.12299460    -0.00400
C356        C  0.49627633  0.12652617  0.14781900     0.02200
C357        C  0.45992258  0.14146030  0.14644899    -0.20700
C358        C  0.45969719  0.16924416  0.11955704    -0.20900
C359        C  0.49588970  0.17074971  0.10502681     0.02100
H360        H  0.43546324  0.13229946  0.16179575     0.15800
H361        H  0.43501421  0.18483383  0.11044666     0.15900
N362        N  0.36015543  0.63606576  0.98242519    -0.00400
C363        C  0.38178542  0.65447065  0.00738220     0.02200
C364        C  0.37104166  0.64382682  0.04266245    -0.20700
C365        C  0.34269728  0.61774177  0.03893001    -0.20900
C366        C  0.33657138  0.61294226  0.00136668     0.02100
H367        H  0.38372750  0.65207399  0.06847704     0.15800
H368        H  0.32987612  0.60252213  0.06155716     0.15900
N369        N  0.11406860  0.49488848  0.10825081    -0.00400
C370        C  0.13354666  0.47513072  0.08205460     0.02200
C371        C  0.12463895  0.43681643  0.08460362    -0.20700
C372        C  0.09842872  0.43355522  0.11276886    -0.20900
C373        C  0.09207064  0.46991533  0.12659852     0.02100
H374        H  0.13497039  0.41368502  0.06736601     0.15800
H375        H  0.08555622  0.40743562  0.12190463     0.15900
N376        N  0.96194341  0.35394790  0.37538974    -0.00400
C377        C  0.97421239  0.32039609  0.38988099     0.02200
C378        C  0.99750521  0.30221199  0.36429075    -0.20700
C379        C  0.99966986  0.32571458  0.33379700    -0.20900
C380        C  0.97763358  0.35785360  0.34136208     0.02100
H381        H  0.01276219  0.27558650  0.36764664     0.15800
H382        H  0.01683047  0.32006025  0.30957949     0.15900
N383        N  0.36801759  0.99257181  0.35928238    -0.00400
C384        C  0.34666796  0.01635606  0.38076427     0.02200
C385        C  0.35286224  0.05373771  0.37010671    -0.20700
C386        C  0.37884849  0.05248034  0.34164211    -0.20900
C387        C  0.38825561  0.01462389  0.33593044     0.02100
H388        H  0.34072170  0.07943512  0.38200473     0.15800
H389        H  0.38969706  0.07665154  0.32665220     0.15900
N390        N  0.35975670  0.37679740  0.95795900    -0.00400
C391        C  0.32351341  0.37568164  0.94651793     0.02200
C392        C  0.31536515  0.33885421  0.93566567    -0.20700
C393        C  0.34778448  0.31715957  0.94011203    -0.20900
C394        C  0.37469927  0.34126332  0.95411720     0.02100
H395        H  0.28820236  0.32840414  0.92721933     0.15800
H396        H  0.35055743  0.28669525  0.93595226     0.15900
C397        C  0.07986181  0.19491565  0.52672144    -0.13400
C398        C  0.04681713  0.18801824  0.50966746    -0.28600
H399        H  0.08276740  0.22100756  0.54250205     0.15600
H400        H  0.04363298  0.16195616  0.49381381     0.16200
C401        C  0.91739091  0.17375934  0.50291631    -0.13400
C402        C  0.88968253  0.16053177  0.52521438    -0.28600
H403        H  0.92231834  0.16000393  0.47646124     0.15600
H404        H  0.88683543  0.17174374  0.55300650     0.16200
C405        C  0.96870442  0.28080303  0.58356976    -0.13400
C406        C  0.96545319  0.31890978  0.58819287    -0.28600
H407        H  0.97355706  0.26361963  0.60805284     0.15600
H408        H  0.95815828  0.33723531  0.56525595     0.16200
C409        C  0.97617337  0.27174630  0.44041936    -0.13400
C410        C  0.96703361  0.30731103  0.42871495    -0.28600
H411        H  0.98664115  0.25104294  0.42043197     0.15600
H412        H  0.95470936  0.32769001  0.44801836     0.16200
C413        C  0.12259766  0.14499172  0.46888284    -0.15500
C414        C  0.11538443  0.14435337  0.43650754     0.08600
C415        C  0.09894062  0.13672688  0.40217011     0.10500
C416        C  0.07696160  0.12190816  0.38181190    -0.16300
C417        C  0.06876940  0.96011914  0.37792222    -0.15500
C418        C  0.08783375  0.93498096  0.39070310     0.08600
C419        C  0.10705423  0.90934463  0.41380472     0.10500
C420        C  0.12218978  0.89102225  0.43754749    -0.16300
C421        C  0.85638279  0.13821049  0.44935986    -0.15500
C422        C  0.86672226  0.14790853  0.41911083     0.08600
C423        C  0.88809248  0.14514163  0.38632652     0.10500
C424        C  0.91265618  0.12973682  0.36852453    -0.16300
C425        C  0.88425892  0.87722671  0.42040350    -0.15500
C426        C  0.89339186  0.90061179  0.39792405     0.08600
C427        C  0.90449438  0.93202388  0.37655423     0.10500
C428        C  0.91819062  0.96114563  0.36579777    -0.16300
C429        C  0.20536674  0.07279110  0.52691260    -0.13400
C430        C  0.17721456  0.09029579  0.50822762    -0.28600
H431        H  0.21165732  0.08254208  0.55458520     0.15600
H432        H  0.17165568  0.08167298  0.48000452     0.16200
C433        C  0.22127833  0.93339402  0.49049505    -0.13400
C434        C  0.18579089  0.92394978  0.48137513    -0.28600
H435        H  0.24150496  0.91113876  0.49748849     0.15600
H436        H  0.16668312  0.94607357  0.47162411     0.16200
C437        C  0.32328469  0.99434276  0.54335545    -0.13400
C438        C  0.32612841  0.98971878  0.58015746    -0.28600
H439        H  0.34860168  0.99480082  0.52634441     0.15600
H440        H  0.30076056  0.98635950  0.59671826     0.16200
C441        C  0.29618455  0.02843105  0.42754106    -0.13400
C442        C  0.32226004  0.00446304  0.41262585    -0.28600
H443        H  0.29163678  0.05588962  0.41450953     0.15600
H444        H  0.32642115  0.97624654  0.42410649     0.16200
C445        C  0.39596714  0.87227795  0.42195836    -0.15500
C446        C  0.38283433  0.88850043  0.39573856     0.08600
C447        C  0.37438774  0.92031745  0.37355209     0.10500
C448        C  0.37100620  0.95292740  0.36371313    -0.16300
C449        C  0.62076815  0.95682236  0.37971921    -0.15500
C450        C  0.59953408  0.93768005  0.39743135     0.08600
C451        C  0.57217769  0.91857802  0.41817624     0.10500
C452        C  0.54746671  0.90581714  0.43702538    -0.16300
C453        C  0.62357534  0.95492235  0.62622305    -0.15500
C454        C  0.60137772  0.93202707  0.61499278     0.08600
C455        C  0.57281113  0.90873747  0.60083604     0.10500
C456        C  0.54675227  0.89422212  0.58533889    -0.14500
C457        C  0.38704172  0.85416772  0.58796839    -0.15500
C458        C  0.36807327  0.86725159  0.61268202     0.08600
C459        C  0.35726313  0.90037972  0.63217107     0.10500
C460        C  0.36013876  0.93429375  0.63591840    -0.16300
C461        C  0.87527861  0.61387409  0.41132576    -0.15500
C462        C  0.89259097  0.61963154  0.38330885     0.08600
C463        C  0.92450541  0.61826300  0.36007653     0.10500
C464        C  0.95678205  0.61482346  0.35008291    -0.16300
C465        C  0.93684962  0.37996021  0.39220294    -0.15500
C466        C  0.91592336  0.40322429  0.40605969     0.08600
C467        C  0.89491764  0.43281890  0.42294081     0.10500
C468        C  0.88259138  0.46017259  0.43927310    -0.16300
C469        C  0.95017649  0.65326096  0.62303781    -0.15500
C470        C  0.91728262  0.66159002  0.62033591     0.08600
C471        C  0.88271933  0.65694249  0.60211921     0.10500
C472        C  0.86540009  0.64039587  0.57868752    -0.16300
C473        C  0.87362742  0.47383152  0.58533882    -0.15500
C474        C  0.88557362  0.44556037  0.59999731     0.08600
C475        C  0.90817698  0.41493136  0.61199103     0.10500
C476        C  0.93212119  0.39287761  0.62206967    -0.16300
C477        C  0.48665302  0.07786247  0.19713473    -0.13400
C478        C  0.50880573  0.09302856  0.17061989    -0.28600
H479        H  0.45936847  0.09103016  0.20255378     0.15600
H480        H  0.53666271  0.08078636  0.16577601     0.16200
C481        C  0.51576706  0.92208734  0.18015350    -0.13400
C482        C  0.50478441  0.93507427  0.21367532    -0.28600
H483        H  0.53303017  0.94000015  0.16264319     0.15600
H484        H  0.48970917  0.91631781  0.23225755     0.16200
C485        C  0.45096498  0.00040567  0.30796792    -0.13400
C486        C  0.41304423  0.00191032  0.30496365    -0.28600
H487        H  0.46375095  0.99846414  0.33502577     0.15600
H488        H  0.40093946  0.00419707  0.27760286     0.16200
C489        C  0.59363863  0.99415932  0.30949653    -0.13400
C490        C  0.58121594  0.01953734  0.28429068    -0.28600
H491        H  0.57524394  0.97164877  0.31878251     0.15600
H492        H  0.59959975  0.04282965  0.27693529     0.16200
C493        C  0.63972419  0.08717772  0.07834732    -0.15500
C494        C  0.62138476  0.11012113  0.09570327     0.08600
C495        C  0.58851147  0.12854480  0.10896455     0.10500
C496        C  0.55647045  0.13777388  0.11604483    -0.16300
C497        C  0.63978960  0.07679163  0.92068366    -0.15500
C498        C  0.62145899  0.09359062  0.89811304     0.08600
C499        C  0.58842743  0.10506565  0.87991214     0.10500
C500        C  0.55624127  0.11012269  0.87085196    -0.16300
C501        C  0.63763594  0.91963416  0.08256254    -0.15500
C502        C  0.61896679  0.89757818  0.09987167     0.08600
C503        C  0.58626860  0.88018645  0.11352867     0.10500
C504        C  0.55480941  0.87213371  0.12296874    -0.16300
C505        C  0.63802606  0.91602761  0.92879839    -0.15500
C506        C  0.62205516  0.89365412  0.90950561     0.08600
C507        C  0.59350006  0.87318251  0.89197493     0.10500
C508        C  0.56542097  0.85927776  0.87978301    -0.16300
C509        C  0.48454110  0.21966330  0.05617648    -0.13400
C510        C  0.50708193  0.19256354  0.07123726    -0.28600
H511        H  0.45908911  0.22842654  0.07079838     0.15600
H512        H  0.53309134  0.18453182  0.05711352     0.16200
C513        C  0.49050666  0.19981584  0.91785094    -0.13400
C514        C  0.50448763  0.16434621  0.91283437    -0.28600
H515        H  0.47441187  0.21320201  0.89592152     0.15600
H516        H  0.52327652  0.15207953  0.93326905     0.16200
C517        C  0.56929846  0.29009229  0.96698784    -0.13400
C518        C  0.58640778  0.31781864  0.98614814    -0.28600
H519        H  0.58376755  0.27662331  0.94375796     0.15600
H520        H  0.57097648  0.33293493  0.00781115     0.16200
C521        C  0.43282893  0.30099881  0.95334808    -0.13400
C522        C  0.41130590  0.32815658  0.96979681    -0.28600
H523        H  0.42621157  0.29191653  0.92548198     0.15600
H524        H  0.41940874  0.33936466  0.99651966     0.16200
C525        C  0.44001249  0.49649330  0.94663806    -0.15500
C526        C  0.42033332  0.47077742  0.95641124     0.08600
C527        C  0.39887779  0.43830760  0.96378160     0.10500
C528        C  0.38063787  0.40973066  0.96398832    -0.16300
C529        C  0.36436182  0.63883719  0.94399456    -0.15500
C530        C  0.37493797  0.64150824  0.91249134     0.08600
C531        C  0.40143700  0.64056934  0.88349779     0.10500
C532        C  0.43281734  0.63249065  0.87337070    -0.16300
C533        C  0.65584634  0.63743277  0.96720616    -0.15500
C534        C  0.65642486  0.64572943  0.93502625     0.08600
C535        C  0.63736372  0.64547991  0.90121565     0.10500
C536        C  0.60895125  0.63509662  0.88671726    -0.16300
C537        C  0.62506045  0.39543967  0.98757045    -0.15500
C538        C  0.61216196  0.42704671  0.98387493     0.08600
C539        C  0.60000333  0.46372445  0.97341709     0.10500
C540        C  0.58776444  0.49286129  0.96058164    -0.16300
C541        C  0.06623622  0.48031304  0.15775771    -0.13400
C542        C  0.03820873  0.45751501  0.16952350    -0.28600
H543        H  0.07097289  0.50741183  0.17111098     0.15600
H544        H  0.03177708  0.43229308  0.15344492     0.16200
C545        C  0.91648940  0.50018973  0.23397526    -0.13400
C546        C  0.89101908  0.50870703  0.20762612    -0.28600
H547        H  0.91091340  0.51274927  0.26095027     0.15600
H548        H  0.86872433  0.52864346  0.21562856     0.16200
C549        C  0.97432685  0.39294998  0.31759983    -0.13400
C550        C  0.98998456  0.39451159  0.28351599    -0.28600
H551        H  0.96012394  0.41793038  0.32886524     0.15600
H552        H  0.00360221  0.36901694  0.27267887     0.16200
C553        C  0.99985894  0.55300043  0.30514326    -0.13400
C554        C  0.02162866  0.52348767  0.29328528    -0.28600
H555        H  0.97048098  0.55455354  0.29717298     0.15600
H556        H  0.05115425  0.52233303  0.30051172     0.16200
C557        C  0.05979249  0.62144793  0.09106292    -0.15500
C558        C  0.08420448  0.60235577  0.10485294     0.08600
C559        C  0.10391676  0.56818965  0.11188033     0.10500
C560        C  0.11160726  0.53470588  0.11159383    -0.16300
C561        C  0.10384685  0.56407371  0.86249702    -0.15500
C562        C  0.08525242  0.58471552  0.88222203     0.08600
C563        C  0.06509181  0.60598502  0.90899945     0.10500
C564        C  0.04681942  0.61885078  0.93431737    -0.16300
C565        C  0.86300682  0.55011437  0.14047001    -0.15500
C566        C  0.86351842  0.58403658  0.13553921     0.08600
C567        C  0.87545234  0.61923569  0.12141833     0.10500
C568        C  0.89507965  0.63774652  0.10131341    -0.16300
C569        C  0.89551030  0.63633388  0.93929400    -0.15500
C570        C  0.88004748  0.62307505  0.91299066     0.08600
C571        C  0.86866943  0.59561012  0.88733086     0.10500
C572        C  0.86144735  0.56631722  0.87186121    -0.16300
C573        C  0.18439264  0.47111687  0.03475170    -0.13400
C574        C  0.15892336  0.49233297  0.05375113    -0.28600
H575        H  0.18675147  0.44090880  0.04085717     0.15600
H576        H  0.15753581  0.52291559  0.04924944     0.16200
C577        C  0.17444776  0.52915548  0.89397553    -0.13400
C578        C  0.20981752  0.52085249  0.90519260    -0.28600
H579        H  0.15260234  0.53470992  0.91446607     0.15600
H580        H  0.23224073  0.51769993  0.88484722     0.16200
C581        C  0.28527382  0.56598985  0.00601828    -0.13400
C582        C  0.31119754  0.58363681  0.98490143    -0.28600
H583        H  0.28147132  0.57559816  0.03430624     0.15600
H584        H  0.31456142  0.57606663  0.95599437     0.16200
C585        C  0.29808137  0.44341327  0.95531015    -0.13400
C586        C  0.29349569  0.40524924  0.95293117    -0.28600
H587        H  0.32446876  0.45628368  0.94748595     0.15600
H588        H  0.26535315  0.39412819  0.95682359     0.16200
C589        C  0.07928954  0.79040114  0.49266177    -0.13400
C590        C  0.09515859  0.81696302  0.47090469    -0.28600
H591        H  0.09095103  0.78554196  0.51988157     0.15600
H592        H  0.08296851  0.82265797  0.44405115     0.16200
C593        C  0.94033500  0.77252962  0.46059276    -0.13400
C594        C  0.92770402  0.80830384  0.45329746    -0.28600
H595        H  0.92000554  0.75069295  0.46717723     0.15600
H596        H  0.94739791  0.82976299  0.44413794     0.16200
C597        C  0.01042139  0.66463829  0.39139590    -0.13400
C598        C  0.03564047  0.68955945  0.40451185    -0.28600
H599        H  0.98179374  0.66522769  0.40195696     0.15600
H600        H  0.06371017  0.68962198  0.39245209     0.16200
C601        C  0.00181858  0.67548692  0.52197536    -0.13400
C602        C  0.00074354  0.67558891  0.55918247    -0.28600
H603        H  0.99868994  0.64886640  0.50702590     0.15600
H604        H  0.00074836  0.70256361  0.57394596     0.16200
C605        C  0.79658320  0.03179939  0.44977568    -0.13400
C606        C  0.81740177  0.06380373  0.45319222    -0.28600
H607        H  0.79381898  0.02182530  0.42149398     0.15600
H608        H  0.82679756  0.07514195  0.42689023     0.16200
C609        C  0.79068219  0.90418511  0.49320081    -0.13400
C610        C  0.81420791  0.89382208  0.46538893    -0.28600
H611        H  0.78888292  0.88584112  0.51717679     0.15600
H612        H  0.81809359  0.91292406  0.44225430     0.16200
C613        C  0.69115294  0.97525832  0.43147922    -0.13400
C614        C  0.70387493  0.98116844  0.39681265    -0.28600
H615        H  0.66107088  0.97584897  0.43677755     0.15600
H616        H  0.73392298  0.98419161  0.39238932     0.16200
C617        C  0.71801704  0.00352619  0.56535503    -0.13400
C618        C  0.69367604  0.98275362  0.58576338    -0.28600
H619        H  0.72763153  0.03063365  0.57592040     0.15600
H620        H  0.68331376  0.95617048  0.57455092     0.16200
C621        C  0.51124670  0.06078491  0.81785490    -0.13400
C622        C  0.49106909  0.04562601  0.79023710    -0.28600
H623        H  0.53847593  0.04827356  0.82458733     0.15600
H624        H  0.46459154  0.05939507  0.78306225     0.16200
C625        C  0.52201236  0.89281689  0.81610676    -0.13400
C626        C  0.51086103  0.90180270  0.78159313    -0.28600
H627        H  0.53589746  0.91444421  0.83240536     0.15600
H628        H  0.49952971  0.87984836  0.76384233     0.16200
C629        C  0.46289889  0.96927565  0.67833412    -0.13400
C630        C  0.42515863  0.97298633  0.67575354    -0.28600
H631        H  0.48015866  0.96812326  0.65346353     0.15600
H632        H  0.40792264  0.97179466  0.70060987     0.16200
C633        C  0.58423639  0.97786385  0.70203415    -0.13400
C634        C  0.60771690  0.00683131  0.69454907    -0.28600
H635        H  0.59008761  0.94987028  0.69052987     0.15600
H636        H  0.60223157  0.03445635  0.70706003     0.16200
C637        C  0.05519781  0.53094396  0.79491351    -0.13400
C638        C  0.09123394  0.52990985  0.78273091    -0.28600
H639        H  0.04905223  0.53530557  0.82398159     0.15600
H640        H  0.09612174  0.52400131  0.75358782     0.16200
C641        C  0.91560082  0.50496904  0.77920748    -0.13400
C642        C  0.90084443  0.52380175  0.80866184    -0.28600
H643        H  0.89930455  0.48317196  0.76559032     0.15600
H644        H  0.91645903  0.54715223  0.82055273     0.16200
C645        C  0.00017993  0.42980172  0.71405686    -0.13400
C646        C  0.97753440  0.41867318  0.68644628    -0.28600
H647        H  0.02217684  0.41045208  0.72334632     0.15600
H648        H  0.95612280  0.43821813  0.67650517     0.16200
C649        C  0.98655783  0.55001348  0.67388390    -0.13400
C650        C  0.98880861  0.58746978  0.66607693    -0.28600
H651        H  0.98437543  0.52949111  0.65152484     0.15600
H652        H  0.98813195  0.60819304  0.68840314     0.16200
C653        C  0.51875609  0.79882046  0.07330126    -0.13400
C654        C  0.49262110  0.82504754  0.08358667    -0.28600
H655        H  0.54320467  0.79415816  0.09065126     0.15600
H656        H  0.46725699  0.82757040  0.06710604     0.16200
C657        C  0.49880283  0.77218215  0.93530186    -0.13400
C658        C  0.51772028  0.80139633  0.91982585    -0.28600
H659        H  0.48054404  0.75493746  0.91836333     0.15600
H660        H  0.53771674  0.81670108  0.93662097     0.16200
C661        C  0.42982562  0.70211979  0.02406678    -0.13400
C662        C  0.41508721  0.67880165  0.99843494    -0.28600
H663        H  0.41527095  0.70493063  0.05040301     0.15600
H664        H  0.42763632  0.67705658  0.97109448     0.16200
C665        C  0.55295401  0.67463933  0.00976923    -0.13400
C666        C  0.59087343  0.67228305  0.01088164    -0.28600
H667        H  0.53652650  0.64874546  0.00949829     0.15600
H668        H  0.60735593  0.69799323  0.00822169     0.16200
C669        C  0.83932294  0.49356734  0.08171388    -0.13400
C670        C  0.81882455  0.46687486  0.06441132    -0.28600
H671        H  0.83625747  0.52311101  0.07330104     0.15600
H672        H  0.82049541  0.43772880  0.07429277     0.16200
C673        C  0.81632416  0.51118078  0.91571923    -0.13400
C674        C  0.78570386  0.49471088  0.93030994    -0.28600
H675        H  0.83438592  0.52768523  0.93357650     0.15600
H676        H  0.76606284  0.48052627  0.91219824     0.16200
C677        C  0.70898071  0.41966692  0.98873784    -0.13400
C678        C  0.71051726  0.38234690  0.99773067    -0.28600
H679        H  0.68703904  0.42999488  0.97071436     0.15600
H680        H  0.73465162  0.37116793  0.01240486     0.16200
C681        C  0.70277181  0.54169342  0.02953885    -0.13400
C682        C  0.68571927  0.56511584  0.00528390    -0.28600
H683        H  0.69440581  0.54327519  0.05842109     0.15600
H684        H  0.69597895  0.56655703  0.97702258     0.16200
loop_ 
_geom_bond_atom_site_label_1 
_geom_bond_atom_site_label_2 
_geom_bond_distance 
_geom_bond_site_symmetry_2 
_ccdc_geom_bond_type 
C1            C2   1.540       .  S
C1            C7   1.532       .  S
C1            C5   1.541   1_554  S
C1          C670   1.527       .  S
C2            H9   1.084       .  S
C2            C3   1.369       .  D
C3            C4   1.542   1_554  S
C3          C677   1.494   1_554  S
C4            C8   1.548   1_556  S
C4            C6   1.542       .  S
C4           H10   1.111       .  S
C5           H11   1.086       .  S
C5            C6   1.376       .  D
C6          C674   1.492       .  S
C7           H12   1.087       .  S
C7            C8   1.364       .  D
C8          C681   1.487       .  S
C13          C14   1.535       .  S
C13          C19   1.536       .  S
C13          C17   1.538       .  S
C13         C653   1.531       .  S
C14          H21   1.086       .  S
C14          C15   1.369       .  D
C15          C16   1.550   1_554  S
C15         C665   1.489       .  S
C16          C20   1.547   1_556  S
C16          C18   1.554       .  S
C16          H22   1.110       .  S
C17          H23   1.085   1_554  S
C17          C18   1.376   1_554  D
C18         C657   1.501       .  S
C19          H24   1.087       .  S
C19          C20   1.362       .  D
C20         C661   1.495       .  S
C25          C26   1.537       .  S
C25          C31   1.539       .  S
C25          C29   1.535   1_455  S
C25         C637   1.526       .  S
C26          H33   1.086       .  S
C26          C27   1.370   1_455  D
C27          C28   1.547       .  S
C27         C649   1.489       .  S
C28          C32   1.547       .  S
C28          C30   1.550       .  S
C28          H34   1.108       .  S
C29          H35   1.085       .  S
C29          C30   1.372       .  D
C30         C641   1.496       .  S
C31          H36   1.087       .  S
C31          C32   1.365   1_455  D
C32         C645   1.497   1_655  S
C37          C38   1.534       .  S
C37          C43   1.538       .  S
C37          C41   1.534   1_545  S
C37         C622   1.523       .  S
C38          H45   1.087       .  S
C38          C39   1.360   1_545  D
C39          C40   1.543       .  S
C39         C629   1.488       .  S
C40          C44   1.548       .  S
C40          C42   1.553       .  S
C40          H46   1.111       .  S
C41          H47   1.086       .  S
C41          C42   1.373       .  D
C42         C626   1.499       .  S
C43          H48   1.084       .  S
C43          C44   1.377   1_545  D
C44         C633   1.500       .  S
C49          C50   1.549   1_565  S
C49          C55   1.530       .  S
C49          C53   1.535       .  S
C49         C617   1.522   1_565  S
C50          H57   1.083       .  S
C50          C51   1.369       .  D
C51          C52   1.549   1_545  S
C51         C605   1.496       .  S
C52          C56   1.550       .  S
C52          C54   1.555       .  S
C52          H58   1.108       .  S
C53          H59   1.086       .  S
C53          C54   1.368       .  D
C54         C613   1.501       .  S
C55          H60   1.087       .  S
C55          C56   1.364       .  D
C56         C609   1.497       .  S
C61          C62   1.533       .  S
C61          C67   1.539       .  S
C61          C65   1.539       .  S
C61         C589   1.525       .  S
C62          H69   1.087       .  S
C62          C63   1.367       .  D
C63          C64   1.549   1_455  S
C63         C598   1.494       .  S
C64          C68   1.542   1_655  S
C64          C66   1.554       .  S
C64          H70   1.109       .  S
C65          H71   1.085       .  S
C65          C66   1.375   1_455  D
C66         C593   1.498       .  S
C67          H72   1.086       .  S
C67          C68   1.365       .  D
C68         C601   1.491       .  S
C73          C74   1.527       .  S
C73          C79   1.532   1_554  S
C73          C77   1.534   1_554  S
C73         C573   1.520       .  S
C74          H81   1.087       .  S
C74          C75   1.368   1_554  D
C75          C76   1.554       .  S
C75         C581   1.493   1_556  S
C76          C80   1.549       .  S
C76          C78   1.552       .  S
C76          H82   1.110       .  S
C77          H83   1.085       .  S
C77          C78   1.375       .  D
C78         C578   1.495       .  S
C79          H84   1.086   1_556  S
C79          C80   1.365       .  D
C80         C585   1.497       .  S
O85         Cu93   1.963       .  S
O85          C95   1.271       .  A
O86         Cu93   1.974   1_456  S
O86          C96   1.271       .  A
O87         Cu93   1.976   1_455  S
O87          C97   1.273       .  A
O88         Cu93   1.974   1_556  S
O88          C98   1.273       .  A
O89         Cu94   2.016   1_556  S
O89          C98   1.276       .  A
O90         Cu94   2.025   1_455  S
O90          C97   1.277       .  A
O91         Cu94   2.029   1_456  S
O91          C96   1.280       .  A
O92         Cu94   2.036       .  S
O92          C95   1.279       .  A
Cu93        Cu94   2.382       .  S
C95         C568   1.429       .  S
C96         C564   1.429       .  S
C97         C557   1.428       .  S
C98         C569   1.424       .  S
N99         C103   1.350       .  A
N99         C100   1.353       .  A
N99         C572   1.401       .  S
C100        C101   1.389       .  A
C100        C642   1.495       .  S
C101        C102   1.388       .  A
C101        H104   1.081       .  S
C102        C103   1.385       .  A
C102        H105   1.082       .  S
C103        C673   1.493       .  S
C106        C107   1.531       .  S
C106        C112   1.539       .  S
C106        C110   1.540   1_455  S
C106        C542   1.527       .  S
C107        H114   1.087       .  S
C107        C108   1.367   1_455  D
C108        C109   1.554       .  S
C108        C550   1.501       .  S
C109        C113   1.543   1_655  S
C109        C111   1.551       .  S
C109        H115   1.110       .  S
C110        H116   1.084       .  S
C110        C111   1.372       .  D
C111        C545   1.490       .  S
C112        H117   1.083       .  S
C112        C113   1.361       .  D
C113        C554   1.483       .  S
N118        C122   1.353       .  A
N118        C119   1.353       .  A
N118        C565   1.406       .  S
C119        C120   1.389       .  A
C119        C669   1.498       .  S
C120        C121   1.389       .  A
C120        H123   1.082       .  S
C121        C122   1.384       .  A
C121        H124   1.082       .  S
C122        C546   1.486       .  S
N125        C129   1.356       .  A
N125        C126   1.357       .  A
N125        C561   1.403       .  S
C126        C127   1.384       .  A
C126        C638   1.494       .  S
C127        C128   1.382       .  A
C127        H130   1.082       .  S
C128        C129   1.385       .  A
C128        H131   1.082       .  S
C129        C577   1.494       .  S
O132       Cu140   1.986       .  S
O132        C142   1.275       .  A
O133       Cu140   1.995       .  S
O133        C143   1.274       .  A
O134       Cu140   1.996       .  S
O134        C144   1.274       .  A
O135       Cu140   1.982       .  S
O135        C145   1.275       .  A
O136       Cu141   2.012       .  S
O136        C145   1.276       .  A
O137       Cu141   2.006       .  S
O137        C144   1.277       .  A
O138       Cu141   2.008       .  S
O138        C143   1.277       .  A
O139       Cu141   2.018       .  S
O139        C142   1.276       .  A
Cu140      Cu141   2.382       .  S
C142        C536   1.430       .  S
C143        C525   1.428       .  S
C144        C540   1.428       .  S
C145        C532   1.426       .  S
N146        C150   1.356       .  A
N146        C147   1.356       .  A
N146        C533   1.403   1_554  S
C147        C148   1.388       .  A
C147        C682   1.494       .  S
C148        C149   1.380       .  A
C148        H151   1.082       .  S
C149        C150   1.382       .  A
C149        H152   1.082       .  S
C150        C666   1.488       .  S
C153        C154   1.543       .  S
C153        C159   1.532       .  S
C153        C157   1.542   1_554  S
C153        C509   1.524       .  S
C154        H161   1.086       .  S
C154        C155   1.368   1_554  D
C155        C156   1.542       .  S
C155        C521   1.491       .  S
C156        C160   1.550       .  S
C156        C158   1.537       .  S
C156        H162   1.111       .  S
C157        H163   1.086       .  S
C157        C158   1.368       .  D
C158        C513   1.488       .  S
C159        H164   1.086       .  S
C159        C160   1.370   1_554  D
C160        C517   1.486       .  S
O165       Cu173   1.965   1_566  S
O165        C175   1.271       .  A
O166       Cu173   1.962       .  S
O166        C176   1.271       .  A
O167       Cu173   1.961   1_556  S
O167        C177   1.271       .  A
O168       Cu173   1.961   1_565  S
O168        C178   1.271       .  A
O169       Cu174   2.032       .  S
O169        C178   1.279       .  A
O170       Cu174   2.029   1_546  S
O170        C177   1.278       .  A
O171       Cu174   2.034   1_545  S
O171        C176   1.279       .  A
O172       Cu174   2.028   1_556  S
O172        C175   1.279       .  A
Cu173      Cu174   2.382   1_545  S
C175        C505   1.425       .  S
C176        C493   1.427       .  S
C177        C497   1.425       .  S
C178        C501   1.425       .  S
N179        C183   1.355       .  A
N179        C180   1.353       .  A
N179        C508   1.403       .  S
C180        C181   1.386       .  A
C180        C625   1.497       .  S
C181        C182   1.391       .  A
C181        H184   1.082       .  S
C182        C183   1.388       .  A
C182        H185   1.082       .  S
C183        C658   1.501       .  S
C186        C187   1.529       .  S
C186        C192   1.537       .  S
C186        C190   1.536       .  S
C186        C477   1.526       .  S
C187        H194   1.087       .  S
C187        C188   1.369       .  D
C188        C189   1.557   1_545  S
C188        C490   1.499       .  S
C189        C193   1.547   1_565  S
C189        C191   1.552       .  S
C189        H195   1.109       .  S
C190        H196   1.086       .  S
C190        C191   1.374   1_545  D
C191        C482   1.491       .  S
C192        H197   1.087       .  S
C192        C193   1.365       .  D
C193        C485   1.496       .  S
N198        C202   1.357       .  A
N198        C199   1.356       .  A
N198        C504   1.402       .  S
C199        C200   1.383       .  A
C199        C654   1.490       .  S
C200        C201   1.381       .  A
C200        H203   1.082       .  S
C201        C202   1.384       .  A
C201        H204   1.082       .  S
C202        C481   1.492       .  S
N205        C209   1.353       .  A
N205        C206   1.354       .  A
N205        C500   1.402       .  S
C206        C207   1.391       .  A
C206        C621   1.499       .  S
C207        C208   1.383       .  A
C207        H210   1.081       .  S
C208        C209   1.383       .  A
C208        H211   1.082       .  S
C209        C514   1.488       .  S
O212       Cu220   2.024       .  S
O212        C222   1.278       .  A
O213       Cu220   2.017       .  S
O213        C223   1.277       .  A
O214       Cu220   2.038       .  S
O214        C224   1.279       .  A
O215       Cu220   2.022       .  S
O215        C225   1.278       .  A
O216       Cu221   1.980       .  S
O216        C225   1.273       .  A
O217       Cu221   1.974       .  S
O217        C224   1.273       .  A
O218       Cu221   1.977       .  S
O218        C223   1.273       .  A
O219       Cu221   1.973       .  S
O219        C222   1.273       .  A
Cu220      Cu221   2.381       .  S
C222        C461   1.428       .  S
C223        C473   1.425       .  S
C224        C472   1.434       .  S
C225        C468   1.428       .  S
N226        C230   1.356       .  A
N226        C227   1.355   1_655  A
N226        C469   1.405       .  S
C227        C228   1.383       .  A
C227        C602   1.488       .  S
C228        C229   1.381       .  A
C228        H231   1.082       .  S
C229        C230   1.385   1_455  A
C229        H232   1.082       .  S
C230        C650   1.489       .  S
O233       Cu241   2.030       .  S
O233        C243   1.279       .  A
O234       Cu241   2.027       .  S
O234        C244   1.279       .  A
O235       Cu241   2.026       .  S
O235        C245   1.277       .  A
O236       Cu241   2.009       .  S
O236        C246   1.276       .  A
O237       Cu242   1.989       .  S
O237        C246   1.274       .  A
O238       Cu242   1.981       .  S
O238        C245   1.275       .  A
O239       Cu242   1.980       .  S
O239        C244   1.272       .  A
O240       Cu242   1.974       .  S
O240        C243   1.273       .  A
Cu241      Cu242   2.381       .  S
C243        C445   1.430       .  S
C244        C456   1.431       .  S
C245        C457   1.432       .  S
C246        C452   1.426       .  S
N247        C251   1.359   1_565  A
N247        C248   1.360       .  A
N247        C453   1.404       .  S
C248        C249   1.387   1_565  A
C248        C618   1.497       .  S
C249        C250   1.379       .  A
C249        H252   1.081       .  S
C250        C251   1.382       .  A
C250        H253   1.082       .  S
C251        C634   1.495       .  S
C254        C255   1.532       .  S
C254        C260   1.540       .  S
C254        C258   1.533       .  S
C254        C429   1.524       .  S
C255        H262   1.086       .  S
C255        C256   1.369       .  D
C256        C257   1.552   1_545  S
C256        C441   1.496       .  S
C257        C261   1.543   1_565  S
C257        C259   1.554       .  S
C257        H263   1.109       .  S
C258        H264   1.086   1_545  S
C258        C259   1.373   1_545  D
C259        C433   1.496       .  S
C260        H265   1.087       .  S
C260        C261   1.365       .  D
C261        C437   1.488   1_545  S
O266       Cu274   1.972       .  S
O266        C276   1.272   1_545  A
O267       Cu274   1.965   1_455  S
O267        C277   1.272       .  A
O268       Cu274   1.967       .  S
O268        C278   1.272       .  A
O269       Cu274   1.974   1_455  S
O269        C279   1.272   1_545  A
O270       Cu275   2.024   1_455  S
O270        C279   1.278   1_545  A
O271       Cu275   2.035       .  S
O271        C278   1.279       .  A
O272       Cu275   2.028   1_455  S
O272        C277   1.278       .  A
O273       Cu275   2.026       .  S
O273        C276   1.279   1_545  A
Cu274      Cu275   2.382       .  S
C276        C428   1.428       .  S
C277        C416   1.425       .  S
C278        C424   1.429       .  S
C279        C417   1.426       .  S
N280        C284   1.358       .  A
N280        C281   1.356       .  A
N280        C425   1.403       .  S
C281        C282   1.387       .  A
C281        C610   1.503       .  S
C282        C283   1.383       .  A
C282        H285   1.081       .  S
C283        C284   1.386       .  A
C283        H286   1.082       .  S
C284        C594   1.498       .  S
C287        C288   1.533   1_655  S
C287        C293   1.540       .  S
C287        C291   1.547       .  S
C287        C405   1.530       .  S
C288        H295   1.085       .  S
C288        C289   1.365       .  D
C289        C290   1.547   1_455  S
C289        C398   1.505       .  S
C290        C294   1.551       .  S
C290        C292   1.550       .  S
C290        H296   1.111       .  S
C291        H297   1.082       .  S
C291        C292   1.376       .  D
C292        C409   1.500       .  S
C293        H298   1.084       .  S
C293        C294   1.373       .  D
C294        C401   1.507       .  S
N299        C303   1.356       .  A
N299        C300   1.364       .  A
N299        C421   1.407       .  S
C300        C301   1.385       .  A
C300        C606   1.499       .  S
C301        C302   1.387       .  A
C301        H304   1.080       .  S
C302        C303   1.384       .  A
C302        H305   1.082       .  S
C303        C402   1.501       .  S
N306        C310   1.353       .  A
N306        C307   1.353       .  A
N306        C420   1.401       .  S
C307        C308   1.389       .  A
C307        C590   1.498       .  S
C308        C309   1.388       .  A
C308        H311   1.082       .  S
C309        C310   1.385       .  A
C309        H312   1.082       .  S
C310        C434   1.493       .  S
N313        C317   1.355       .  A
N313        C314   1.355       .  A
N313        C460   1.403       .  S
C314        C315   1.384   1_565  A
C314        C438   1.487       .  S
C315        C316   1.381       .  A
C315        H318   1.082       .  S
C316        C317   1.384   1_545  A
C316        H319   1.082       .  S
C317        C630   1.485       .  S
N320        C324   1.354       .  A
N320        C321   1.355       .  A
N320        C476   1.401       .  S
C321        C322   1.387   1_655  A
C321        C646   1.500       .  S
C322        C323   1.385       .  A
C322        H325   1.081       .  S
C323        C324   1.387   1_455  A
C323        H326   1.082       .  S
C324        C406   1.497       .  S
N327        C331   1.359       .  A
N327        C328   1.355       .  A
N327        C413   1.402       .  S
C328        C329   1.380       .  A
C328        C397   1.489       .  S
C329        C330   1.379       .  A
C329        H332   1.082       .  S
C330        C331   1.389       .  A
C330        H333   1.081       .  S
C331        C430   1.501       .  S
N334        C338   1.357       .  A
N334        C335   1.359       .  A
N334        C449   1.399       .  S
C335        C336   1.382   1_565  A
C335        C614   1.499       .  S
C336        C337   1.382       .  A
C336        H339   1.082       .  S
C337        C338   1.388   1_545  A
C337        H340   1.081       .  S
C338        C489   1.505       .  S
N341        C345   1.357   1_655  A
N341        C342   1.356   1_655  A
N341        C464   1.403       .  S
C342        C343   1.385       .  A
C342        C597   1.498       .  S
C343        C344   1.379       .  A
C343        H346   1.081       .  S
C344        C345   1.389       .  A
C344        H347   1.081       .  S
C345        C553   1.499   1_455  S
N348        C352   1.354       .  A
N348        C349   1.355       .  A
N348        C537   1.401       .  S
C349        C350   1.383       .  A
C349        C678   1.492       .  S
C350        C351   1.383       .  A
C350        H353   1.082       .  S
C351        C352   1.384       .  A
C351        H354   1.082       .  S
C352        C518   1.488       .  S
N355        C359   1.358       .  A
N355        C356   1.358       .  A
N355        C496   1.404       .  S
C356        C357   1.388       .  A
C356        C478   1.503       .  S
C357        C358   1.381       .  A
C357        H360   1.081       .  S
C358        C359   1.387       .  A
C358        H361   1.081       .  S
C359        C510   1.500       .  S
N362        C366   1.358   1_556  A
N362        C363   1.358   1_556  A
N362        C529   1.403       .  S
C363        C364   1.385       .  A
C363        C662   1.502   1_554  S
C364        C365   1.377       .  A
C364        H367   1.081       .  S
C365        C366   1.390       .  A
C365        H368   1.081       .  S
C366        C582   1.501   1_554  S
N369        C373   1.354       .  A
N369        C370   1.354       .  A
N369        C560   1.404       .  S
C370        C371   1.389       .  A
C370        C574   1.494       .  S
C371        C372   1.382       .  A
C371        H374   1.081       .  S
C372        C373   1.384       .  A
C372        H375   1.081       .  S
C373        C541   1.490       .  S
N376        C380   1.357       .  A
N376        C377   1.358       .  A
N376        C465   1.402       .  S
C377        C378   1.386       .  A
C377        C410   1.502       .  S
C378        C379   1.383       .  A
C378        H381   1.081   1_655  S
C379        C380   1.389       .  A
C379        H382   1.081   1_655  S
C380        C549   1.509       .  S
N383        C387   1.357   1_565  A
N383        C384   1.359   1_565  A
N383        C448   1.404       .  S
C384        C385   1.389       .  A
C384        C442   1.502       .  S
C385        C386   1.379       .  A
C385        H388   1.081       .  S
C386        C387   1.380       .  A
C386        H389   1.082       .  S
C387        C486   1.484       .  S
N390        C394   1.355       .  A
N390        C391   1.356       .  A
N390        C528   1.399       .  S
C391        C392   1.385       .  A
C391        C586   1.494       .  S
C392        C393   1.382       .  A
C392        H395   1.082       .  S
C393        C394   1.383       .  A
C393        H396   1.082       .  S
C394        C522   1.490       .  S
C397        H399   1.084       .  S
C397        C398   1.354       .  D
C398        H400   1.086       .  S
C401        H403   1.084       .  S
C401        C402   1.356       .  D
C402        H404   1.083       .  S
C405        H407   1.088       .  S
C405        C406   1.350       .  D
C406        H408   1.083       .  S
C409        H411   1.084       .  S
C409        C410   1.355       .  D
C410        H412   1.084       .  S
C413        C414   1.203       .  T
C414        C415   1.405       .  S
C415        C416   1.200       .  T
C417        C418   1.201       .  T
C418        C419   1.404       .  S
C419        C420   1.201       .  T
C421        C422   1.205       .  T
C422        C423   1.407       .  S
C423        C424   1.202       .  T
C425        C426   1.204       .  T
C426        C427   1.408       .  S
C427        C428   1.202       .  T
C429        H431   1.084       .  S
C429        C430   1.353       .  D
C430        H432   1.086       .  S
C433        H435   1.086       .  S
C433        C434   1.350       .  D
C434        H436   1.086       .  S
C437        H439   1.086       .  S
C437        C438   1.348       .  D
C438        H440   1.086       .  S
C441        H443   1.085       .  S
C441        C442   1.351       .  D
C442        H444   1.084   1_545  S
C445        C446   1.203       .  T
C446        C447   1.408       .  S
C447        C448   1.204       .  T
C449        C450   1.200       .  T
C450        C451   1.403       .  S
C451        C452   1.200       .  T
C453        C454   1.205       .  T
C454        C455   1.410       .  S
C455        C456   1.204       .  T
C457        C458   1.202       .  T
C458        C459   1.406       .  S
C459        C460   1.203       .  T
C461        C462   1.202       .  T
C462        C463   1.407       .  S
C463        C464   1.204       .  T
C465        C466   1.202       .  T
C466        C467   1.406       .  S
C467        C468   1.202       .  T
C469        C470   1.205       .  T
C470        C471   1.409       .  S
C471        C472   1.204       .  T
C473        C474   1.201       .  T
C474        C475   1.405       .  S
C475        C476   1.202       .  T
C477        H479   1.084       .  S
C477        C478   1.352       .  D
C478        H480   1.086       .  S
C481        H483   1.086       .  S
C481        C482   1.349       .  D
C482        H484   1.086       .  S
C485        H487   1.085   1_545  S
C485        C486   1.352       .  D
C486        H488   1.086       .  S
C489        H491   1.084       .  S
C489        C490   1.350   1_565  D
C490        H492   1.085       .  S
C493        C494   1.202       .  T
C494        C495   1.407       .  S
C495        C496   1.204       .  T
C497        C498   1.200       .  T
C498        C499   1.405       .  S
C499        C500   1.202       .  T
C501        C502   1.201       .  T
C502        C503   1.406       .  S
C503        C504   1.203       .  T
C505        C506   1.200       .  T
C506        C507   1.405       .  S
C507        C508   1.202       .  T
C509        H511   1.084       .  S
C509        C510   1.354       .  D
C510        H512   1.086       .  S
C513        H515   1.087       .  S
C513        C514   1.345       .  D
C514        H516   1.086       .  S
C517        H519   1.086       .  S
C517        C518   1.347       .  D
C518        H520   1.087   1_556  S
C521        H523   1.086       .  S
C521        C522   1.348       .  D
C522        H524   1.086       .  S
C525        C526   1.201       .  T
C526        C527   1.404       .  S
C527        C528   1.201       .  T
C529        C530   1.203       .  T
C530        C531   1.405       .  S
C531        C532   1.200       .  T
C533        C534   1.203       .  T
C534        C535   1.404       .  S
C535        C536   1.201       .  T
C537        C538   1.203       .  T
C538        C539   1.406       .  S
C539        C540   1.202       .  T
C541        H543   1.081       .  S
C541        C542   1.352       .  D
C542        H544   1.086       .  S
C545        H547   1.087       .  S
C545        C546   1.351       .  D
C546        H548   1.086       .  S
C549        H551   1.083       .  S
C549        C550   1.352       .  D
C550        H552   1.082   1_655  S
C553        H555   1.085       .  S
C553        C554   1.351   1_655  D
C554        H556   1.083       .  S
C557        C558   1.201       .  T
C558        C559   1.405       .  S
C559        C560   1.203       .  T
C561        C562   1.203       .  T
C562        C563   1.408       .  S
C563        C564   1.203       .  T
C565        C566   1.205       .  T
C566        C567   1.408       .  S
C567        C568   1.202       .  T
C569        C570   1.199       .  T
C570        C571   1.402       .  S
C571        C572   1.201       .  T
C573        H575   1.086       .  S
C573        C574   1.347       .  D
C574        H576   1.087       .  S
C577        H579   1.085       .  S
C577        C578   1.351       .  D
C578        H580   1.085       .  S
C581        H583   1.085       .  S
C581        C582   1.350   1_554  D
C582        H584   1.085       .  S
C585        H587   1.082       .  S
C585        C586   1.354       .  D
C586        H588   1.086       .  S
C589        H591   1.086       .  S
C589        C590   1.349       .  D
C590        H592   1.086       .  S
C593        H595   1.086       .  S
C593        C594   1.355       .  D
C594        H596   1.086       .  S
C597        H599   1.083   1_455  S
C597        C598   1.348       .  D
C598        H600   1.085       .  S
C601        H603   1.086   1_455  S
C601        C602   1.348       .  D
C602        H604   1.086       .  S
C605        H607   1.087       .  S
C605        C606   1.359       .  D
C606        H608   1.086       .  S
C609        H611   1.085       .  S
C609        C610   1.350       .  D
C610        H612   1.084       .  S
C613        H615   1.084       .  S
C613        C614   1.349       .  D
C614        H616   1.084       .  S
C617        H619   1.085       .  S
C617        C618   1.355   1_545  D
C618        H620   1.086       .  S
C621        H623   1.086       .  S
C621        C622   1.347       .  D
C622        H624   1.085       .  S
C625        H627   1.086       .  S
C625        C626   1.352       .  D
C626        H628   1.085       .  S
C629        H631   1.086       .  S
C629        C630   1.348       .  D
C630        H632   1.086       .  S
C633        H635   1.083       .  S
C633        C634   1.350   1_565  D
C634        H636   1.083       .  S
C637        H639   1.084       .  S
C637        C638   1.350       .  D
C638        H640   1.088       .  S
C641        H643   1.085       .  S
C641        C642   1.352       .  D
C642        H644   1.085       .  S
C645        H647   1.084       .  S
C645        C646   1.348   1_455  D
C646        H648   1.082       .  S
C649        H651   1.086       .  S
C649        C650   1.349       .  D
C650        H652   1.086       .  S
C653        H655   1.087       .  S
C653        C654   1.348       .  D
C654        H656   1.087       .  S
C657        H659   1.085       .  S
C657        C658   1.354       .  D
C658        H660   1.085       .  S
C661        H663   1.085       .  S
C661        C662   1.349   1_554  D
C662        H664   1.084       .  S
C665        H667   1.086       .  S
C665        C666   1.349       .  D
C666        H668   1.086       .  S
C669        H671   1.086       .  S
C669        C670   1.350       .  D
C670        H672   1.086       .  S
C673        H675   1.086       .  S
C673        C674   1.344       .  D
C674        H676   1.086       .  S
C677        H679   1.080       .  S
C677        C678   1.351       .  D
C678        H680   1.082   1_556  S
C681        H683   1.087       .  S
C681        C682   1.347       .  D
C682        H684   1.086   1_554  S
