geometry optimzed in LAMMPS
_audit_creation_date              2020-11-30 
_audit_creation_method            'lammps2cif' 
_symmetry_space_group_name_H-M    'P1' 
_symmetry_Int_Tables_number       1 
_symmetry_cell_setting            triclinic 
loop_ 
_symmetry_equiv_pos_as_xyz 
  x,y,z 
_cell_length_a                    46.54439280987697 
_cell_length_b                    46.37095709554718 
_cell_length_c                    20.46850851560756 
_cell_angle_alpha                 92.48471732679656 
_cell_angle_beta                  88.2624958524809 
_cell_angle_gamma                 89.88384858568533 
loop_ 
_atom_site_label 
_atom_site_type_symbol 
_atom_site_fract_x 
_atom_site_fract_y 
_atom_site_fract_z 
_atom_site_charge 
N1          N  0.59556170  0.61493195  0.97425104    -0.23500
N2          N  0.57418023  0.59819152  0.99322661    -0.31350
C3          C  0.55007402  0.61395701  0.00110722     0.04840
C4          C  0.55652617  0.64189372  0.98650060     0.10870
C5          C  0.58548124  0.64202137  0.96945227    -0.02230
H6          H  0.52919946  0.60546310  0.01472658     0.11540
H7          H  0.59809736  0.66013644  0.95351100     0.12740
Cu8        Cu  0.57707513  0.55425103  0.00270066     0.44170
Cu9        Cu  0.63671690  0.59901766  0.95368791     0.41990
Cu10       Cu  0.64302354  0.51955461  0.96062057     0.43880
N11         N  0.58155972  0.50998063  0.99939837    -0.30880
N12         N  0.60602473  0.49671811  0.98292881    -0.25140
C13         C  0.60169333  0.46797210  0.98145355    -0.01240
C14         C  0.57311794  0.46322540  0.99793134     0.10980
C15         C  0.56097683  0.49021721  0.00887923     0.04780
H16         H  0.61792452  0.45187012  0.96803227     0.12430
H17         H  0.53867536  0.49518277  0.02112532     0.11510
N18         N  0.67669283  0.54724867  0.93996044    -0.32330
N19         N  0.67459934  0.57567970  0.93735143    -0.24510
C20         C  0.70078644  0.58649112  0.92346072     0.00250
C21         C  0.71998268  0.56376950  0.91699457     0.08860
C22         C  0.70418129  0.53929340  0.92782039     0.06950
H23         H  0.70548220  0.60918568  0.91907100     0.12060
H24         H  0.71206137  0.51731605  0.92755911     0.10890
N25         N  0.33502588  0.71410153  0.99455567    -0.23500
N26         N  0.35212383  0.69163072  0.00082556    -0.31350
C27         C  0.33610428  0.66765125  0.00404185     0.04840
C28         C  0.30766071  0.67542182  0.99954236     0.10870
C29         C  0.30756643  0.70496810  0.99356956    -0.02230
H30         H  0.34461446  0.64609798  0.00827627     0.11540
H31         H  0.28907972  0.71873312  0.98798711     0.12740
Cu32       Cu  0.39653295  0.69395925  0.00143202     0.44170
Cu33       Cu  0.35042513  0.75569716  0.98506314     0.41990
Cu34       Cu  0.42881923  0.76300756  0.98056837     0.43880
N35         N  0.44052274  0.70034083  0.99531656    -0.30880
N36         N  0.45249550  0.72582358  0.98740332    -0.25140
C37         C  0.48124482  0.72272662  0.98324938    -0.01240
C38         C  0.48741752  0.69389064  0.98889517     0.10980
C39         C  0.46130278  0.68026202  0.99646840     0.04780
H40         H  0.49635668  0.74008654  0.97600231     0.12430
H41         H  0.45762693  0.65742690  0.00166065     0.11510
N42         N  0.40053826  0.79663982  0.97146301    -0.32330
N43         N  0.37219546  0.79419231  0.97302492    -0.24510
C44         C  0.36054501  0.82026753  0.96456337     0.00250
C45         C  0.38268117  0.83968974  0.95724339     0.08860
C46         C  0.40768437  0.82421287  0.96198636     0.06950
H47         H  0.33772155  0.82467415  0.96364613     0.12060
H48         H  0.42946095  0.83227337  0.95865021     0.10890
N49         N  0.21875558  0.57516825  0.98998089    -0.23500
N50         N  0.24260029  0.56340915  0.01049299    -0.31350
C51         C  0.26272686  0.58383591  0.01796959     0.04840
C52         C  0.25112359  0.60972101  0.00153935     0.10870
C53         C  0.22323887  0.60368693  0.98379311    -0.02230
H54         H  0.28449343  0.57991476  0.03259506     0.11540
H55         H  0.20763083  0.61867100  0.96650883     0.12740
Cu56       Cu  0.24862253  0.52003526  0.02270959     0.44170
Cu57       Cu  0.18198967  0.55097078  0.96969661     0.41990
Cu58       Cu  0.19207978  0.47230457  0.98146051     0.43880
N59         N  0.25353754  0.47591662  0.02102892    -0.30880
N60         N  0.23288887  0.45772065  0.00467306    -0.25140
C61         C  0.24354007  0.43060424  0.00358194    -0.01240
C62         C  0.27212765  0.43219583  0.02024278     0.10980
C63         C  0.27775222  0.46113938  0.03081683     0.04780
H64         H  0.23163820  0.41135964  0.98995455     0.12430
H65         H  0.29818478  0.47086240  0.04254764     0.11510
N66         N  0.15336941  0.49233397  0.95987184    -0.32330
N67         N  0.14947805  0.52049270  0.95518359    -0.24510
C68         C  0.12186567  0.52542685  0.94007374     0.00250
C69         C  0.10786468  0.49916478  0.93539887     0.08860
C70         C  0.12843629  0.47877227  0.94801555     0.06950
H71         H  0.11279467  0.54649725  0.93270962     0.12060
H72         H  0.12553517  0.45561186  0.94801251     0.10890
N73         N  0.37428814  0.34439117  0.01251707    -0.23500
N74         N  0.38701297  0.36963747  0.02188466    -0.31350
C75         C  0.36703422  0.39059169  0.02735168     0.04840
C76         C  0.34043883  0.37798667  0.02119652     0.10870
C77         C  0.34562980  0.34868745  0.01174276    -0.02230
H78         H  0.37163088  0.41338907  0.03388272     0.11540
H79         H  0.32989276  0.33185603  0.00378520     0.12740
Cu80       Cu  0.43088653  0.37506749  0.02252795     0.44170
Cu81       Cu  0.39743524  0.30591952  0.99914104     0.41990
Cu82       Cu  0.47659807  0.31340281  0.99165261     0.43880
N83         N  0.47490785  0.37803236  0.01339578    -0.30880
N84         N  0.49229498  0.35572207  0.00121869    -0.25140
C85         C  0.51951255  0.36559743  0.99553718    -0.01240
C86         C  0.51876624  0.39538600  0.00474781     0.10980
C87         C  0.49028065  0.40247726  0.01583656     0.04780
H88         H  0.53826707  0.35220162  0.98471667     0.12430
H89         H  0.48124801  0.42390788  0.02397094     0.11510
N90         N  0.45441247  0.27400691  0.98440990    -0.32330
N91         N  0.42604891  0.27127017  0.98702653    -0.24510
C92         C  0.41925017  0.24299532  0.98074910     0.00250
C93         C  0.44446606  0.22725905  0.97388698     0.08860
C94         C  0.46626045  0.24752316  0.97642805     0.06950
H95         H  0.39757338  0.23460873  0.98116401     0.12060
H96         H  0.48915048  0.24327860  0.97269329     0.10890
C97         C  0.55818023  0.16982226  0.05333264     0.01310
C98         C  0.55520944  0.17144067  0.83481703     0.01310
C99         C  0.54520381  0.10421840  0.93680245     0.01310
C100        C  0.49038817  0.16037735  0.95128518     0.01310
C101        C  0.37623280  0.99008712  0.82901191     0.01310
C102        C  0.37279134  0.99452541  0.05184081     0.01310
C103        C  0.36980350  0.92594913  0.94000378     0.01310
C104        C  0.31006202  0.97716933  0.94020723     0.01310
C105        C  0.40338834  0.02058638  0.65476808     0.06920
C106        C  0.39564664  0.01412898  0.58981160    -0.09230
C107        C  0.40828932  0.02952395  0.53878226     0.04420
C108        C  0.42842343  0.05114095  0.55294496    -0.07750
C109        C  0.43617664  0.05757491  0.61735545     0.06920
C110        C  0.42363763  0.04231133  0.66827275    -0.07170
H111        H  0.38007097  0.99735258  0.57916211     0.12510
H112        H  0.43826833  0.06293424  0.51347241     0.10040
H113        H  0.42965707  0.04726776  0.71829444     0.09890
C114        C  0.52554017  0.14650647  0.54034326     0.06920
C115        C  0.50421677  0.12622491  0.55415273    -0.09230
C116        C  0.49743734  0.11959116  0.61868008     0.04420
C117        C  0.51212582  0.13348626  0.66983577    -0.07750
C118        C  0.53360012  0.15395180  0.65607149     0.06920
C119        C  0.54029409  0.16044338  0.59118641    -0.07170
H120        H  0.49296841  0.11541801  0.51439024     0.12510
H121        H  0.50701727  0.12832177  0.72004479     0.10040
H122        H  0.55689073  0.17605692  0.58036328     0.09890
C123        C  0.40018722  0.02458809  0.22806515     0.06920
C124        C  0.39320031  0.01740103  0.29266780    -0.09230
C125        C  0.40779187  0.03084291  0.34471431     0.04420
C126        C  0.42917854  0.05127775  0.33183035    -0.07750
C127        C  0.43616315  0.05841736  0.26755432     0.06920
C128        C  0.42163177  0.04506895  0.21575295    -0.07170
H129        H  0.37671773  0.00151149  0.30225197     0.12510
H130        H  0.44048959  0.06163224  0.37204059     0.10040
H131        H  0.42707430  0.05050910  0.16587075     0.09890
C132        C  0.52720094  0.14551959  0.34670972     0.06920
C133        C  0.54285464  0.15858698  0.29660307    -0.09230
C134        C  0.53689247  0.15141623  0.23120544     0.04420
C135        C  0.51520499  0.13114589  0.21628326    -0.07750
C136        C  0.49963309  0.11815116  0.26683986     0.06920
C137        C  0.50575068  0.12544970  0.33173629    -0.07170
H138        H  0.55948059  0.17414369  0.30836404     0.12510
H139        H  0.51051604  0.12556284  0.16571673     0.10040
H140        H  0.49376985  0.11538730  0.37096027     0.09890
N141        N  0.88104911  0.20506517  0.86716016    -0.23500
N142        N  0.89375531  0.17955741  0.86710240    -0.31350
C143        C  0.87374883  0.15877598  0.86789456     0.04840
C144        C  0.84714250  0.17181535  0.86843093     0.10870
C145        C  0.85234491  0.20116502  0.86799402    -0.02230
H146        H  0.87829327  0.13589325  0.86864655     0.11540
H147        H  0.83656208  0.21834978  0.86880499     0.12740
Cu148      Cu  0.93750909  0.17406979  0.86761295     0.44170
Cu149      Cu  0.90440710  0.24329680  0.86758523     0.41990
Cu150      Cu  0.98378688  0.23587180  0.87111309     0.43880
N151        N  0.98140732  0.17106086  0.87049808    -0.30880
N152        N  0.99911847  0.19332822  0.87201348    -0.25140
C153        C  0.02629338  0.18323638  0.87491553    -0.01240
C154        C  0.02506689  0.15337122  0.87511965     0.10980
C155        C  0.99645335  0.14646766  0.87233721     0.04780
H156        H  0.04532638  0.19656006  0.87719833     0.12430
H157        H  0.98712484  0.12510270  0.87224006     0.11510
N158        N  0.96128366  0.27520996  0.87117240    -0.32330
N159        N  0.93292674  0.27784305  0.86993904    -0.24510
C160        C  0.92587578  0.30611956  0.87125967     0.00250
C161        C  0.95089865  0.32197908  0.87347052     0.08860
C162        C  0.97287539  0.30180310  0.87327353     0.06950
H163        H  0.90414114  0.31441985  0.87093470     0.12060
H164        H  0.99569230  0.30617877  0.87486042     0.10890
N165        N  0.72267855  0.97621830  0.91147067    -0.23500
N166        N  0.74821485  0.98803027  0.90169134    -0.31350
C167        C  0.76862832  0.96762082  0.90176772     0.04840
C168        C  0.75548320  0.94165640  0.91202296     0.10870
C169        C  0.72633159  0.94760688  0.91810162    -0.02230
H170        H  0.79144052  0.97152626  0.89535999     0.11540
H171        H  0.70916622  0.93243896  0.92700089     0.12740
Cu172      Cu  0.75550937  0.03115547  0.89025100     0.44170
Cu173      Cu  0.68469979  0.00055886  0.91547953     0.41990
Cu174      Cu  0.69632713  0.07902657  0.89826032     0.43880
N175        N  0.76045397  0.07489584  0.88388892    -0.30880
N176        N  0.73868308  0.09327398  0.88722663    -0.25140
C177        C  0.74915817  0.12028454  0.88333966    -0.01240
C178        C  0.77882041  0.11835970  0.87724116     0.10980
C179        C  0.78523649  0.08939489  0.87781712     0.04780
H180        H  0.73623314  0.13974324  0.88546992     0.12430
H181        H  0.80636708  0.07954463  0.87490768     0.11510
N182        N  0.65616953  0.05929725  0.90919228    -0.32330
N183        N  0.65167228  0.03131473  0.91560674    -0.24510
C184        C  0.62306065  0.02669529  0.92199871     0.00250
C185        C  0.60908123  0.05295918  0.91919558     0.08860
C186        C  0.63066535  0.07303254  0.91126219     0.06950
H187        H  0.61326430  0.00583861  0.92855121     0.12060
H188        H  0.62801310  0.09611020  0.90774273     0.10890
N189        N  0.95499029  0.82100680  0.92029766    -0.23500
N190        N  0.94332691  0.84705893  0.92580536    -0.31350
C191        C  0.96433796  0.86678146  0.92918581     0.04840
C192        C  0.99028863  0.85238427  0.92572604     0.10870
C193        C  0.98380490  0.82341992  0.91996248    -0.02230
H194        H  0.96094213  0.88989951  0.93283723     0.11540
H195        H  0.99875968  0.80550190  0.91498716     0.12740
Cu196      Cu  0.89956531  0.85501338  0.92623625     0.44170
Cu197      Cu  0.93092256  0.78387369  0.91195878     0.41990
Cu198      Cu  0.85285310  0.79407508  0.90966658     0.43880
N199        N  0.85530275  0.85857238  0.92323455    -0.30880
N200        N  0.83794029  0.83616259  0.91690348    -0.25140
C201        C  0.81062071  0.84565695  0.91525392    -0.01240
C202        C  0.81105145  0.87540970  0.92099581     0.10980
C203        C  0.83958149  0.88293972  0.92581656     0.04780
H204        H  0.79199630  0.83194836  0.90957984     0.12430
H205        H  0.84833311  0.90452282  0.93005507     0.11510
N206        N  0.87339443  0.75440792  0.90370647    -0.32330
N207        N  0.90159397  0.75075565  0.90454017    -0.24510
C208        C  0.90763920  0.72238714  0.90037359     0.00250
C209        C  0.88203736  0.70772426  0.89675368     0.08860
C210        C  0.86074002  0.72842710  0.89898021     0.06950
H211        H  0.92904303  0.71322399  0.90033945     0.12060
H212        H  0.83777805  0.72494252  0.89762263     0.10890
N213        N  0.09715771  0.93188672  0.91907036    -0.23500
N214        N  0.07481166  0.94896965  0.91139748    -0.31350
C215        C  0.05077326  0.93311014  0.91118614     0.04840
C216        C  0.05833164  0.90482501  0.91904279     0.10870
C217        C  0.08783265  0.90454758  0.92399406    -0.02230
H218        H  0.02933433  0.94164087  0.90609593     0.11540
H219        H  0.10145528  0.88606285  0.93097678     0.12740
Cu220      Cu  0.07676446  0.99312804  0.90236233     0.44170
Cu221      Cu  0.13889205  0.94704798  0.92307299     0.41990
Cu222      Cu  0.14506140  0.02556432  0.90700780     0.43880
N223        N  0.08256478  0.03707264  0.89525569    -0.30880
N224        N  0.10815559  0.04927010  0.89693151    -0.25140
C225        C  0.10522839  0.07797557  0.89226708    -0.01240
C226        C  0.07634226  0.08390470  0.88740644     0.10980
C227        C  0.06253590  0.05762711  0.88946032     0.04780
H228        H  0.12275333  0.09327376  0.89292069     0.12430
H229        H  0.03965517  0.05373410  0.88743235     0.11510
N230        N  0.17903137  0.99806872  0.91947548    -0.32330
N231        N  0.17710905  0.96981027  0.92538671    -0.24510
C232        C  0.20360017  0.95904503  0.93288207     0.00250
C233        C  0.22270716  0.98170676  0.93166243     0.08860
C234        C  0.20664031  0.00603305  0.92304344     0.06950
H235        H  0.20850648  0.93648356  0.93854296     0.12060
H236        H  0.21435771  0.02792111  0.91940700     0.10890
C237        C  0.87475450  0.55350710  0.98626585     0.01310
C238        C  0.86930270  0.55605004  0.76437847     0.01310
C239        C  0.86651623  0.62107923  0.88656709     0.01310
C240        C  0.80730275  0.56944207  0.88952502     0.01310
C241        C  0.06071682  0.38825082  0.75826032     0.01310
C242        C  0.06322726  0.37718914  0.97492431     0.01310
C243        C  0.04746511  0.44820029  0.88991460     0.01310
C244        C  0.99535022  0.39009480  0.87718672     0.01310
C245        C  0.03309010  0.41163541  0.46404604     0.06920
C246        C  0.04807428  0.39935600  0.51440560    -0.09230
C247        C  0.04097412  0.40741356  0.57980436     0.04420
C248        C  0.01885099  0.42769175  0.59441964    -0.07750
C249        C  0.00397044  0.43986477  0.54380370     0.06920
C250        C  0.01119732  0.43178159  0.47892251    -0.07170
H251        H  0.06498128  0.38367089  0.50286450     0.12510
H252        H  0.01320505  0.43385882  0.64491991     0.10040
H253        H  0.99964933  0.44117397  0.43968525     0.09890
C254        C  0.89962562  0.52932753  0.58485395     0.06920
C255        C  0.89306839  0.53530740  0.52007890    -0.09230
C256        C  0.90932709  0.52221904  0.46778322     0.04420
C257        C  0.93187321  0.50341214  0.48060854    -0.07750
C258        C  0.93838830  0.49745495  0.54485978     0.06920
C259        C  0.92228302  0.51042070  0.59691472    -0.07170
H260        H  0.87557546  0.54985923  0.51055054     0.12510
H261        H  0.94436309  0.49323030  0.44025887     0.10040
H262        H  0.92732919  0.50577298  0.64678896     0.09890
C263        C  0.04171954  0.39567163  0.15400866     0.06920
C264        C  0.04829491  0.39113332  0.21916227    -0.09230
C265        C  0.03321842  0.40641427  0.26991452     0.04420
C266        C  0.01169147  0.42611631  0.25570507    -0.07750
C267        C  0.00495318  0.43085431  0.19101462     0.06920
C268        C  0.01999413  0.41560085  0.13996164    -0.07170
H269        H  0.06502840  0.37596025  0.23024715     0.12510
H270        H  0.00014070  0.43789049  0.29534700     0.10040
H271        H  0.01493284  0.41926428  0.08960220     0.09890
C272        C  0.90546470  0.52441951  0.15642186     0.06920
C273        C  0.89759648  0.53206586  0.22183264    -0.09230
C274        C  0.91152812  0.51899851  0.27287785     0.04420
C275        C  0.93317853  0.49844565  0.25827069    -0.07750
C276        C  0.94110681  0.49075426  0.19333350     0.06920
C277        C  0.92722274  0.50377678  0.14241278    -0.07170
H278        H  0.88084621  0.54798075  0.23283710     0.12510
H279        H  0.94394022  0.48837016  0.29773661     0.10040
H280        H  0.93331434  0.49788008  0.09201760     0.09890
C281        C  0.98260104  0.45157713  0.17909658    -0.09480
C282        C  0.96357857  0.46946276  0.18034802    -0.11040
C283        C  0.90439399  0.52598401  0.34095375    -0.09480
C284        C  0.90361147  0.52703680  0.40012231    -0.11040
C285        C  0.03926095  0.40261897  0.33740935    -0.09480
C286        C  0.03932292  0.40414862  0.39627371    -0.11040
C287        C  0.96149743  0.47768120  0.55618257    -0.09480
C288        C  0.98104801  0.46052996  0.55650177    -0.11040
C289        C  0.99816164  0.42214729  0.88829257    -0.09480
C290        C  0.01586220  0.44178582  0.89241381    -0.11040
C291        C  0.05725112  0.38063444  0.10054258    -0.09480
C292        C  0.06527448  0.37359205  0.04535510    -0.11040
C293        C  0.03312398  0.37205573  0.95801807    -0.09480
C294        C  0.01222347  0.37689174  0.92711215    -0.11040
C295        C  0.06575625  0.40825789  0.96476781    -0.09480
C296        C  0.06020566  0.42994934  0.93770523    -0.11040
C297        C  0.06265805  0.38828932  0.68668105    -0.09480
C298        C  0.05562688  0.39490345  0.63296178    -0.11040
C299        C  0.10451601  0.38004625  0.82795097    -0.09550
C300        C  0.08141254  0.36782115  0.79295388     0.12600
C301        C  0.07026257  0.34207300  0.81850776    -0.09550
C302        C  0.07203711  0.33777961  0.88593876    -0.09550
C303        C  0.08400429  0.35989139  0.92643238     0.12600
C304        C  0.10633003  0.37537006  0.89520648    -0.09550
H305        H  0.11659353  0.39779590  0.80822950     0.16580
H306        H  0.05484861  0.32935170  0.79114629     0.16580
H307        H  0.05767770  0.32213134  0.90717342     0.16580
H308        H  0.11955974  0.38997623  0.92397951     0.16580
C309        C  0.03072143  0.38177093  0.77717631    -0.09480
C310        C  0.01033228  0.38271331  0.81482771    -0.11040
C311        C  0.06354886  0.41826766  0.78451355    -0.09480
C312        C  0.05887502  0.43714679  0.82599842    -0.11040
C313        C  0.81574982  0.59991512  0.89268990    -0.09480
C314        C  0.83530715  0.61696018  0.89184097    -0.11120
C315        C  0.88373185  0.54219643  0.64032423    -0.09480
C316        C  0.87454147  0.55011040  0.69397553    -0.11040
C317        C  0.87618993  0.58645602  0.78385878    -0.09480
C318        C  0.87583164  0.60660728  0.82374746    -0.11040
C319        C  0.83843381  0.55357004  0.78499328    -0.09480
C320        C  0.81919614  0.55732983  0.82611074    -0.11040
C321        C  0.88231846  0.54614428  0.05272249    -0.09480
C322        C  0.89155723  0.53744399  0.10283069    -0.11040
C323        C  0.87621369  0.51129917  0.90254121    -0.09550
C324        C  0.89131054  0.53360858  0.93563912     0.12600
C325        C  0.91483090  0.54501668  0.90013073    -0.09550
C326        C  0.91295599  0.54599810  0.83220716    -0.09550
C327        C  0.88771935  0.53540067  0.80309123     0.12600
C328        C  0.87419076  0.51236038  0.83467058    -0.09550
H329        H  0.86051660  0.49860606  0.92876324     0.16580
H330        H  0.92995836  0.55926791  0.92439433     0.16580
H331        H  0.92677784  0.56088711  0.80679841     0.16580
H332        H  0.85708564  0.50038739  0.81126145     0.16580
C333        C  0.84328218  0.55142785  0.97559730    -0.09480
C334        C  0.82240790  0.55599112  0.94319709    -0.11040
C335        C  0.88094843  0.58428154  0.97361031    -0.09480
C336        C  0.87869775  0.60524865  0.94053144    -0.11040
C337        C  0.87818844  0.67715269  0.89275326    -0.09480
C338        C  0.87379820  0.65161392  0.88980571    -0.11040
C339        C  0.01800213  0.86569198  0.92451609    -0.09480
C340        C  0.03855992  0.88131678  0.92254943    -0.11040
C341        C  0.78725667  0.89509184  0.91914778    -0.09480
C342        C  0.77033636  0.91469105  0.91661303    -0.11040
C343        C  0.95456383  0.35298099  0.87592814    -0.09480
C344        C  0.96727322  0.37577971  0.87754983    -0.11040
C345        C  0.82000691  0.15710515  0.87088716    -0.09480
C346        C  0.79956928  0.14120087  0.87353097    -0.11040
C347        C  0.04786559  0.13266838  0.87915193    -0.09480
C348        C  0.06281464  0.11157459  0.88277848    -0.11040
C349        C  0.47735152  0.09716556  0.25440372    -0.09480
C350        C  0.45841118  0.07938610  0.25570351    -0.11040
C351        C  0.53194446  0.15210583  0.47314725    -0.09480
C352        C  0.53255817  0.15187067  0.41437613    -0.11040
C353        C  0.40172166  0.02376496  0.47100231    -0.09480
C354        C  0.40166369  0.02429454  0.41202999    -0.11040
C355        C  0.45740990  0.07963412  0.62973095    -0.09480
C356        C  0.47566505  0.09813030  0.63049535    -0.11040
C357        C  0.25320115  0.98046113  0.93660130    -0.09480
C358        C  0.27892580  0.97964801  0.93920362    -0.11040
C359        C  0.33859210  0.92997627  0.93989155    -0.09480
C360        C  0.31884870  0.94684080  0.94021975    -0.11040
C361        C  0.37793324  0.00210906  0.12071933    -0.09480
C362        C  0.38614359  0.01100483  0.17314919    -0.11040
C363        C  0.32232592  0.99128297  0.99924634    -0.09480
C364        C  0.34184453  0.99637172  0.03608718    -0.11040
C365        C  0.37950977  0.94254119  0.99845095    -0.09480
C366        C  0.37993243  0.96376427  0.03523188    -0.11040
C367        C  0.38285932  0.99623774  0.76045287    -0.09480
C368        C  0.39087321  0.00547200  0.70873651    -0.11040
C369        C  0.41678373  0.00102564  0.90715370    -0.09550
C370        C  0.39282241  0.01124398  0.87423829     0.12600
C371        C  0.37782763  0.03457385  0.90631121    -0.09550
C372        C  0.37677002  0.03606240  0.97472157    -0.09550
C373        C  0.39083415  0.01421830  0.00767970     0.12600
C374        C  0.41589684  0.00278029  0.97555794    -0.09550
H375        H  0.43174585  0.98594026  0.88256101     0.16580
H376        H  0.36169621  0.04627316  0.88097525     0.16580
H377        H  0.35981695  0.04879204  0.99938288     0.16580
H378        H  0.43018985  0.98893372  0.00095988     0.16580
C379        C  0.34489976  0.99239644  0.84496921    -0.09480
C380        C  0.32431759  0.98890907  0.88161725    -0.11040
C381        C  0.38300233  0.95971357  0.84429817    -0.09480
C382        C  0.38136676  0.93972655  0.88081108    -0.11040
C383        C  0.55741526  0.07491272  0.93109448    -0.09480
C384        C  0.57870527  0.05974453  0.92568762    -0.11040
C385        C  0.51329782  0.10928726  0.94180174    -0.09480
C386        C  0.49465603  0.12823162  0.94661925    -0.11040
C387        C  0.55646291  0.17406039  0.76387976    -0.09480
C388        C  0.54867550  0.16763577  0.70945319    -0.11040
C389        C  0.52509580  0.17589092  0.85707800    -0.09480
C390        C  0.50492474  0.17181131  0.89364094    -0.11040
C391        C  0.55581073  0.11994387  0.88050332    -0.09480
C392        C  0.55948298  0.14078080  0.84816698    -0.11040
C393        C  0.56035450  0.17145636  0.12452756    -0.09480
C394        C  0.55252824  0.16468812  0.17854333    -0.11040
C395        C  0.56458452  0.21380535  0.98366205    -0.09550
C396        C  0.57761861  0.18992781  0.01206654     0.12600
C397        C  0.60043037  0.17716196  0.97359508    -0.09550
C398        C  0.59934510  0.17754905  0.90501624    -0.09550
C399        C  0.57554088  0.19077410  0.87678110     0.12600
C400        C  0.56336251  0.21412462  0.91509040    -0.09550
H401        H  0.54946547  0.22729032  0.01243756     0.16580
H402        H  0.61412966  0.16122001  0.99424750     0.16580
H403        H  0.61230194  0.16191480  0.87631970     0.16580
H404        H  0.54741275  0.22785052  0.89453369     0.16580
C405        C  0.52779531  0.17449177  0.03919408    -0.09480
C406        C  0.50686152  0.17095735  0.00691305    -0.11040
C407        C  0.56212549  0.13941512  0.03079993    -0.09480
C408        C  0.55741077  0.11909006  0.99407292    -0.11040
C409        C  0.46178526  0.17378160  0.95828300    -0.09480
C410        C  0.44854220  0.19631695  0.96556919    -0.11040
C411        C  0.05828178  0.47751362  0.90392869    -0.09480
C412        C  0.07855619  0.49268709  0.91816332    -0.11040
C413        C  0.29308250  0.40932777  0.02052282    -0.09480
C414        C  0.31345982  0.39318811  0.02083628    -0.11040
C415        C  0.37687945  0.89540804  0.94211486    -0.09480
C416        C  0.38020698  0.86993777  0.94775207    -0.11040
C417        C  0.26659443  0.63645086  0.99916305    -0.09480
C418        C  0.28366944  0.65596783  0.99883344    -0.11040
C419        C  0.75042112  0.56523517  0.90461904    -0.09480
C420        C  0.77611015  0.56653038  0.89629878    -0.11040
C421        C  0.51504706  0.68016303  0.98608146    -0.09480
C422        C  0.53595739  0.66484748  0.98515877    -0.11040
C423        C  0.55800096  0.43620090  0.99914805    -0.09480
C424        C  0.54195256  0.41581051  0.00105960    -0.11040
loop_ 
_geom_bond_atom_site_label_1 
_geom_bond_atom_site_label_2 
_geom_bond_distance 
_geom_bond_site_symmetry_2 
_ccdc_geom_bond_type 
N1            N2   1.323       .  A
N1            C5   1.349       .  A
N1           Cu9   2.076       .  S
N2            C3   1.340   1_556  A
N2           Cu8   2.060   1_556  S
C3            C4   1.374   1_554  A
C3            H6   1.082       .  S
C4            C5   1.382       .  A
C4          C422   1.432       .  S
C5            H7   1.082       .  S
Cu8          N11   2.061   1_554  S
Cu9          N19   2.078       .  S
Cu10         N12   2.073       .  S
Cu10         N18   2.073       .  S
N11          N12   1.321       .  A
N11          C15   1.343   1_556  A
N12          C13   1.348       .  A
C13          C14   1.383       .  A
C13          H16   1.082       .  S
C14          C15   1.379   1_556  A
C14         C423   1.439       .  S
C15          H17   1.082       .  S
N18          N19   1.325       .  A
N18          C22   1.344       .  A
N19          C20   1.346       .  A
C20          C21   1.379       .  A
C20          H23   1.082       .  S
C21          C22   1.376       .  A
C21         C419   1.434       .  S
C22          H24   1.082       .  S
N25          N26   1.323   1_556  A
N25          C29   1.348       .  A
N25         Cu33   2.074       .  S
N26          C27   1.343       .  A
N26         Cu32   2.070       .  S
C27          C28   1.378   1_554  A
C27          H30   1.082       .  S
C28          C29   1.381       .  A
C28         C418   1.437       .  S
C29          H31   1.082       .  S
Cu32         N35   2.070   1_554  S
Cu33         N43   2.075       .  S
Cu34         N36   2.057       .  S
Cu34         N42   2.057       .  S
N35          N36   1.322       .  A
N35          C39   1.343       .  A
N36          C37   1.345       .  A
C37          C38   1.378       .  A
C37          H40   1.082       .  S
C38          C39   1.379       .  A
C38         C421   1.432       .  S
C39          H41   1.082   1_556  S
N42          N43   1.324       .  A
N42          C46   1.343       .  A
N43          C44   1.344       .  A
C44          C45   1.379       .  A
C44          H47   1.082       .  S
C45          C46   1.374       .  A
C45         C416   1.429       .  S
C46          H48   1.082       .  S
N49          N50   1.323   1_556  A
N49          C53   1.350       .  A
N49         Cu57   2.091       .  S
N50          C51   1.341       .  A
N50         Cu56   2.057       .  S
C51          C52   1.374       .  A
C51          H54   1.082       .  S
C52          C53   1.384   1_554  A
C52         C417   1.437   1_554  S
C53          H55   1.082       .  S
Cu56         N59   2.057       .  S
Cu57         N67   2.092       .  S
Cu58         N60   2.090   1_556  S
Cu58         N66   2.093       .  S
N59          N60   1.321       .  A
N59          C63   1.343       .  A
N60          C61   1.350       .  A
C61          C62   1.385       .  A
C61          H64   1.082   1_554  S
C62          C63   1.377       .  A
C62         C413   1.440       .  S
C63          H65   1.082       .  S
N66          N67   1.326       .  A
N66          C70   1.345       .  A
N67          C68   1.352       .  A
C68          C69   1.383       .  A
C68          H71   1.082       .  S
C69          C70   1.382       .  A
C69         C412   1.448       .  S
C70          H72   1.083       .  S
N73          N74   1.322       .  A
N73          C77   1.349       .  A
N73         Cu81   2.086   1_554  S
N74          C75   1.342       .  A
N74         Cu80   2.058       .  S
C75          C76   1.377       .  A
C75          H78   1.082       .  S
C76          C77   1.384       .  A
C76         C414   1.439       .  S
C77          H79   1.082       .  S
Cu80         N83   2.057       .  S
Cu81         N91   2.087       .  S
Cu82         N84   2.099   1_556  S
Cu82         N90   2.102       .  S
N83          N84   1.323       .  A
N83          C87   1.342       .  A
N84          C85   1.351   1_554  A
C85          C86   1.386   1_556  A
C85          H88   1.082       .  S
C86          C87   1.375       .  A
C86         C424   1.440       .  S
C87          H89   1.082       .  S
N90          N91   1.326       .  A
N90          C94   1.347       .  A
N91          C92   1.351       .  A
C92          C93   1.381       .  A
C92          H95   1.082       .  S
C93          C94   1.385       .  A
C93         C410   1.449       .  S
C94          H96   1.083       .  S
C97         C393   1.463       .  S
C97         C405   1.470       .  S
C97         C407   1.474       .  S
C97         C396   1.558       .  S
C98         C387   1.462       .  S
C98         C389   1.472       .  S
C98         C392   1.474       .  S
C98         C399   1.557       .  S
C99         C383   1.471       .  S
C99         C385   1.503       .  S
C99         C391   1.464       .  S
C99         C408   1.464       .  S
C100        C386   1.502       .  S
C100        C390   1.462       .  S
C100        C406   1.460   1_556  S
C100        C409   1.469       .  S
C101        C367   1.468       .  S
C101        C379   1.487       .  S
C101        C381   1.491       .  S
C101        C370   1.544   1_565  S
C102        C361   1.465   1_565  S
C102        C364   1.489       .  S
C102        C366   1.487       .  S
C102        C373   1.544   1_565  S
C103        C359   1.464       .  S
C103        C365   1.477       .  S
C103        C382   1.481       .  S
C103        C415   1.456       .  S
C104        C358   1.454       .  S
C104        C360   1.464       .  S
C104        C363   1.480       .  S
C104        C380   1.478       .  S
C105        C106   1.408       .  A
C105        C110   1.405       .  A
C105        C368   1.442       .  S
C106        C107   1.406       .  A
C106        H111   1.084   1_545  S
C107        C108   1.401       .  A
C107        C353   1.443       .  S
C108        C109   1.397       .  A
C108        H112   1.086       .  S
C109        C110   1.399       .  A
C109        C355   1.444       .  S
C110        H113   1.085       .  S
C114        C115   1.400       .  A
C114        C119   1.400       .  A
C114        C351   1.433       .  S
C115        C116   1.396       .  A
C115        H120   1.086       .  S
C116        C117   1.402       .  A
C116        C356   1.444       .  S
C117        C118   1.410       .  A
C117        H121   1.085       .  S
C118        C119   1.401       .  A
C118        C388   1.441       .  S
C119        H122   1.084       .  S
C123        C124   1.406       .  A
C123        C128   1.404       .  A
C123        C362   1.440       .  S
C124        C125   1.405       .  A
C124        H129   1.084       .  S
C125        C126   1.403       .  A
C125        C354   1.444       .  S
C126        C127   1.399       .  A
C126        H130   1.085       .  S
C127        C128   1.398       .  A
C127        C350   1.444       .  S
C128        H131   1.085       .  S
C132        C133   1.400       .  A
C132        C137   1.398       .  A
C132        C352   1.433       .  S
C133        C134   1.401       .  A
C133        H138   1.084       .  S
C134        C135   1.412       .  A
C134        C394   1.443       .  S
C135        C136   1.403       .  A
C135        H139   1.085       .  S
C136        C137   1.394       .  A
C136        C349   1.444       .  S
C137        H140   1.086       .  S
N141        N142   1.321       .  A
N141        C145   1.348       .  A
N141       Cu149   2.081       .  S
N142        C143   1.342       .  A
N142       Cu148   2.052       .  S
C143        C144   1.377       .  A
C143        H146   1.082       .  S
C144        C145   1.383       .  A
C144        C345   1.437       .  S
C145        H147   1.082       .  S
Cu148       N151   2.051       .  S
Cu149       N159   2.082       .  S
Cu150       N152   2.098       .  S
Cu150       N158   2.102       .  S
N151        N152   1.322       .  A
N151        C155   1.340       .  A
N152        C153   1.352   1_655  A
C153        C154   1.386       .  A
C153        H156   1.082       .  S
C154        C155   1.373   1_455  A
C154        C347   1.436       .  S
C155        H157   1.082       .  S
N158        N159   1.326       .  A
N158        C162   1.347       .  A
N159        C160   1.350       .  A
C160        C161   1.380       .  A
C160        H163   1.082       .  S
C161        C162   1.385       .  A
C161        C343   1.447       .  S
C162        H164   1.083       .  S
N165        N166   1.323       .  A
N165        C169   1.350       .  A
N165       Cu173   2.093   1_565  S
N166        C167   1.340       .  A
N166       Cu172   2.051   1_565  S
C167        C168   1.373       .  A
C167        H170   1.082       .  S
C168        C169   1.385       .  A
C168        C342   1.436       .  S
C169        H171   1.082       .  S
Cu172       N175   2.051       .  S
Cu173       N183   2.095       .  S
Cu174       N176   2.089       .  S
Cu174       N182   2.093       .  S
N175        N176   1.321       .  A
N175        C179   1.342       .  A
N176        C177   1.350       .  A
C177        C178   1.385       .  A
C177        H180   1.082       .  S
C178        C179   1.376       .  A
C178        C346   1.438       .  S
C179        H181   1.082       .  S
N182        N183   1.326       .  A
N182        C186   1.345       .  A
N183        C184   1.353       .  A
C184        C185   1.384       .  A
C184        H187   1.082       .  S
C185        C186   1.382       .  A
C185        C384   1.449       .  S
C186        H188   1.083       .  S
N189        N190   1.322       .  A
N189        C193   1.346       .  A
N189       Cu197   2.060       .  S
N190        C191   1.342       .  A
N190       Cu196   2.069       .  S
C191        C192   1.377       .  A
C191        H194   1.082       .  S
C192        C193   1.378       .  A
C192        C339   1.431   1_655  S
C193        H195   1.082       .  S
Cu196       N199   2.069       .  S
Cu197       N207   2.061       .  S
Cu198       N200   2.068       .  S
Cu198       N206   2.069       .  S
N199        N200   1.322       .  A
N199        C203   1.343       .  A
N200        C201   1.347       .  A
C201        C202   1.380       .  A
C201        H204   1.082       .  S
C202        C203   1.379       .  A
C202        C341   1.436       .  S
C203        H205   1.082       .  S
N206        N207   1.324       .  A
N206        C210   1.343       .  A
N207        C208   1.343       .  A
C208        C209   1.376       .  A
C208        H211   1.082       .  S
C209        C210   1.377       .  A
C209        C337   1.428       .  S
C210        H212   1.082       .  S
N213        N214   1.323       .  A
N213        C217   1.348       .  A
N213       Cu221   2.070       .  S
N214        C215   1.340       .  A
N214       Cu220   2.066       .  S
C215        C216   1.375       .  A
C215        H218   1.082       .  S
C216        C217   1.380       .  A
C216        C340   1.431       .  S
C217        H219   1.082       .  S
Cu220       N223   2.067   1_565  S
Cu221       N231   2.071       .  S
Cu222       N224   2.058       .  S
Cu222       N230   2.058   1_545  S
N223        N224   1.320       .  A
N223        C227   1.343       .  A
N224        C225   1.346       .  A
C225        C226   1.379       .  A
C225        H228   1.082       .  S
C226        C227   1.380       .  A
C226        C348   1.436       .  S
C227        H229   1.082       .  S
N230        N231   1.324       .  A
N230        C234   1.341   1_565  A
N231        C232   1.345       .  A
C232        C233   1.379       .  A
C232        H235   1.082       .  S
C233        C234   1.373   1_565  A
C233        C357   1.427       .  S
C234        H236   1.082       .  S
C237        C321   1.470   1_556  S
C237        C333   1.490       .  S
C237        C335   1.489       .  S
C237        C324   1.544       .  S
C238        C316   1.468       .  S
C238        C317   1.487       .  S
C238        C319   1.491       .  S
C238        C327   1.544       .  S
C239        C314   1.467       .  S
C239        C318   1.477       .  S
C239        C336   1.479       .  S
C239        C338   1.456       .  S
C240        C313   1.467       .  S
C240        C320   1.483       .  S
C240        C334   1.481       .  S
C240        C420   1.461       .  S
C241        C297   1.465       .  S
C241        C309   1.473       .  S
C241        C311   1.478       .  S
C241        C300   1.557       .  S
C242        C292   1.464   1_556  S
C242        C293   1.471       .  S
C242        C295   1.469       .  S
C242        C303   1.560       .  S
C243        C290   1.501       .  S
C243        C296   1.459       .  S
C243        C312   1.468       .  S
C243        C411   1.470       .  S
C244        C289   1.500       .  S
C244        C294   1.462   1_655  S
C244        C310   1.463   1_655  S
C244        C344   1.467       .  S
C245        C246   1.402       .  A
C245        C250   1.399       .  A
C245        C286   1.436       .  S
C246        C247   1.404       .  A
C246        H251   1.084       .  S
C247        C248   1.410       .  A
C247        C298   1.443       .  S
C248        C249   1.402       .  A
C248        H252   1.085       .  S
C249        C250   1.395       .  A
C249        C288   1.443   1_455  S
C250        H253   1.086   1_455  S
C254        C255   1.409       .  A
C254        C259   1.404       .  A
C254        C315   1.443       .  S
C255        C256   1.407       .  A
C255        H260   1.084       .  S
C256        C257   1.401       .  A
C256        C284   1.445       .  S
C257        C258   1.398       .  A
C257        H261   1.086       .  S
C258        C259   1.397       .  A
C258        C287   1.443       .  S
C259        H262   1.085       .  S
C263        C264   1.402       .  A
C263        C268   1.413       .  A
C263        C291   1.446       .  S
C264        C265   1.401       .  A
C264        H269   1.084       .  S
C265        C266   1.400       .  A
C265        C285   1.436       .  S
C266        C267   1.396       .  A
C266        H270   1.086       .  S
C267        C268   1.404       .  A
C267        C281   1.448   1_455  S
C268        H271   1.085       .  S
C272        C273   1.407       .  A
C272        C277   1.407       .  A
C272        C322   1.444       .  S
C273        C274   1.405       .  A
C273        H278   1.084       .  S
C274        C275   1.402       .  A
C274        C283   1.445       .  S
C275        C276   1.400       .  A
C275        H279   1.085       .  S
C276        C277   1.401       .  A
C276        C282   1.448       .  S
C277        H280   1.085       .  S
C281        C282   1.211       .  T
C283        C284   1.209       .  T
C285        C286   1.204       .  T
C287        C288   1.208       .  T
C289        C290   1.231   1_655  T
C291        C292   1.210       .  T
C293        C294   1.202       .  T
C295        C296   1.201       .  T
C297        C298   1.209       .  T
C299        C300   1.416       .  A
C299        C304   1.408       .  A
C299        H305   1.083       .  S
C300        C301   1.417       .  A
C301        C302   1.408       .  A
C301        H306   1.083       .  S
C302        C303   1.416       .  A
C302        H307   1.083       .  S
C303        C304   1.416       .  A
C304        H308   1.083       .  S
C309        C310   1.204       .  T
C311        C312   1.208       .  T
C313        C314   1.207       .  T
C315        C316   1.208       .  T
C317        C318   1.214       .  T
C319        C320   1.217       .  T
C321        C322   1.209       .  T
C323        C324   1.412       .  A
C323        C328   1.398       .  A
C323        H329   1.083       .  S
C324        C325   1.412       .  A
C325        C326   1.398       .  A
C325        H330   1.083       .  S
C326        C327   1.413       .  A
C326        H331   1.083       .  S
C327        C328   1.412       .  A
C328        H332   1.083       .  S
C333        C334   1.216       .  T
C335        C336   1.215       .  T
C337        C338   1.201       .  T
C339        C340   1.202       .  T
C341        C342   1.205       .  T
C343        C344   1.212       .  T
C345        C346   1.206       .  T
C347        C348   1.205       .  T
C349        C350   1.209       .  T
C351        C352   1.202       .  T
C353        C354   1.208       .  T
C355        C356   1.208       .  T
C357        C358   1.201       .  T
C359        C360   1.205       .  T
C361        C362   1.206       .  T
C363        C364   1.215   1_556  T
C365        C366   1.213   1_556  T
C367        C368   1.208   1_565  T
C369        C370   1.412       .  A
C369        C374   1.398       .  A
C369        H375   1.083   1_545  S
C370        C371   1.413       .  A
C371        C372   1.398       .  A
C371        H376   1.083       .  S
C372        C373   1.412   1_556  A
C372        H377   1.084       .  S
C373        C374   1.412   1_554  A
C374        H378   1.083   1_546  S
C379        C380   1.214       .  T
C381        C382   1.217       .  T
C383        C384   1.214       .  T
C385        C386   1.232       .  T
C387        C388   1.207       .  T
C389        C390   1.203       .  T
C391        C392   1.204       .  T
C393        C394   1.208       .  T
C395        C396   1.417   1_556  A
C395        C400   1.407       .  A
C395        H401   1.084   1_556  S
C396        C397   1.416   1_554  A
C397        C398   1.407       .  A
C397        H402   1.083       .  S
C398        C399   1.416       .  A
C398        H403   1.084       .  S
C399        C400   1.416       .  A
C400        H404   1.083       .  S
C405        C406   1.201       .  T
C407        C408   1.205   1_554  T
C409        C410   1.213       .  T
C411        C412   1.213       .  T
C413        C414   1.207       .  T
C415        C416   1.202       .  T
C417        C418   1.206       .  T
C419        C420   1.205       .  T
C421        C422   1.203       .  T
C423        C424   1.207   1_556  T
