geometry optimzed in LAMMPS
_audit_creation_date              2020-11-30 
_audit_creation_method            'lammps2cif' 
_symmetry_space_group_name_H-M    'P1' 
_symmetry_Int_Tables_number       1 
_symmetry_cell_setting            triclinic 
loop_ 
_symmetry_equiv_pos_as_xyz 
  x,y,z 
_cell_length_a                    45.29443614126924 
_cell_length_b                    43.92772550805331 
_cell_length_c                    24.503191942380024 
_cell_angle_alpha                 88.64662595165171 
_cell_angle_beta                  93.30145306211885 
_cell_angle_gamma                 90.19434901253517 
loop_ 
_atom_site_label 
_atom_site_type_symbol 
_atom_site_fract_x 
_atom_site_fract_y 
_atom_site_fract_z 
_atom_site_charge 
N1          N  0.11764276  0.27625487  0.24174065    -0.27020
N2          N  0.09197813  0.28989650  0.24573389    -0.34880
C3          C  0.07071016  0.26882047  0.24999188     0.01320
C4          C  0.08358148  0.24040862  0.24861109     0.07350
C5          C  0.11338323  0.24585947  0.24272335    -0.05750
H6          H  0.04754576  0.27382149  0.25367479     0.08010
H7          H  0.13068789  0.22907533  0.24067995     0.09210
Cu8        Cu  0.08738623  0.33651413  0.24551034     0.44170
Cu9        Cu  0.15635072  0.30131399  0.23889216     0.41990
Cu10       Cu  0.15166774  0.38589369  0.24438893     0.43880
N11         N  0.08502879  0.38334271  0.24450896    -0.34410
N12         N  0.10804234  0.40198156  0.24446594    -0.28660
C13         C  0.09801027  0.43092379  0.24471192    -0.04760
C14         C  0.06737400  0.43001405  0.24455982     0.07460
C15         C  0.06001513  0.39961163  0.24459811     0.01250
H16         H  0.11190647  0.45100737  0.24532642     0.08900
H17         H  0.03803516  0.38992756  0.24525196     0.07980
N18         N  0.19118209  0.36097940  0.24418139    -0.35850
N19         N  0.19214696  0.33087408  0.24231816    -0.28030
C20         C  0.22043799  0.32183882  0.24421743    -0.03270
C21         C  0.23844435  0.34721300  0.24724779     0.05340
C22         C  0.21921341  0.37175133  0.24702288     0.03430
H23         H  0.22733007  0.29829293  0.24375124     0.08540
H24         H  0.22513094  0.39558017  0.24952614     0.07370
N25         N  0.12067360  0.71899999  0.24496208    -0.27020
N26         N  0.09414047  0.70694072  0.24897443    -0.34880
C27         C  0.07471261  0.72936001  0.25533606     0.01320
C28         C  0.08974264  0.75687486  0.25500424     0.07350
C29         C  0.11891592  0.74952099  0.24816060    -0.05750
H30         H  0.05138647  0.72590151  0.26076033     0.08010
H31         H  0.13758518  0.76493685  0.24786252     0.09210
Cu32       Cu  0.08626388  0.66034930  0.24834887     0.44170
Cu33       Cu  0.15739456  0.69202244  0.24087048     0.41990
Cu34       Cu  0.14946078  0.60869141  0.24963752     0.43880
N35         N  0.08281998  0.61317507  0.24855640    -0.34410
N36         N  0.10558534  0.59428710  0.24977387    -0.28660
C37         C  0.09537274  0.56542886  0.25035612    -0.04760
C38         C  0.06484286  0.56638908  0.24913579     0.07460
C39         C  0.05761793  0.59688438  0.24805567     0.01250
H40         H  0.10913262  0.54531358  0.25141684     0.08900
H41         H  0.03565541  0.60655695  0.24733006     0.07980
N42         N  0.18975661  0.63146986  0.24637436    -0.35850
N43         N  0.19177430  0.66149850  0.24294485    -0.28030
C44         C  0.22018922  0.66957989  0.24136937    -0.03270
C45         C  0.23717000  0.64356923  0.24376087     0.05340
C46         C  0.21726013  0.61965505  0.24694542     0.03430
H47         H  0.22780368  0.69290230  0.23863087     0.08540
H48         H  0.22231856  0.59559128  0.24941130     0.07370
N49         N  0.38831202  0.71499805  0.25071699    -0.27020
N50         N  0.41380092  0.70191077  0.26516626    -0.34880
C51         C  0.43510059  0.72309104  0.26617849     0.01320
C52         C  0.42252780  0.75103004  0.25131577     0.07350
C53         C  0.39262520  0.74504660  0.24191633    -0.05750
H54         H  0.45833116  0.71825177  0.27474419     0.08010
H55         H  0.37557188  0.76074916  0.22679599     0.09210
Cu56       Cu  0.41898977  0.65530939  0.27435206     0.44170
Cu57       Cu  0.35050080  0.68934244  0.24086890     0.41990
Cu58       Cu  0.35629831  0.60513713  0.24696465     0.43880
N59         N  0.42248600  0.60864744  0.26757311    -0.34410
N60         N  0.40007926  0.59018018  0.25513399    -0.28660
C61         C  0.41073201  0.56186377  0.24928841    -0.04760
C62         C  0.44111952  0.56279832  0.25925746     0.07460
C63         C  0.44778036  0.59267626  0.27069218     0.01250
H64         H  0.39740405  0.54217041  0.23860077     0.08900
H65         H  0.46953692  0.60232954  0.27902239     0.07980
N66         N  0.31663388  0.62939506  0.24351789    -0.35850
N67         N  0.31545639  0.65950299  0.24083278    -0.28030
C68         C  0.28728248  0.66847001  0.24032792    -0.03270
C69         C  0.26954502  0.64302229  0.24282764     0.05340
C70         C  0.28876276  0.61847050  0.24480641     0.03430
H71         H  0.28037419  0.69203734  0.23889798     0.08540
H72         H  0.28299755  0.59458003  0.24743481     0.07370
O73         O  0.03876962  0.46399626  0.29335272    -0.72670
O74         O  0.47530354  0.52732679  0.30036026    -0.73650
O75         O  0.47619710  0.46230710  0.29790675    -0.62270
O76         O  0.03758627  0.52875880  0.29561777    -0.70680
O77         O  0.03202895  0.53139671  0.20492855    -0.70240
O78         O  0.47134232  0.46423520  0.20714235    -0.61490
O79         O  0.46947883  0.52884527  0.20966545    -0.74000
O80         O  0.03407882  0.46635921  0.20259409    -0.72780
Cu81       Cu  0.00711817  0.49550715  0.29996411     1.04560
Cu82       Cu  0.00160335  0.49777860  0.20287728     1.04330
C83         C  0.04626425  0.45511800  0.24688510     0.93520
C84         C  0.46260507  0.53815286  0.25625853     0.92660
C85         C  0.46428728  0.45273562  0.25295134     0.84810
C86         C  0.04409715  0.54076571  0.24988291     0.91080
N87         N  0.39059138  0.27389164  0.27016565    -0.27020
N88         N  0.41676542  0.28697122  0.26748863    -0.34880
C89         C  0.43747989  0.26538453  0.26518315     0.01320
C90         C  0.42376498  0.23727434  0.26706996     0.07350
C91         C  0.39395580  0.24339831  0.27016565    -0.05750
H92         H  0.46071616  0.26981969  0.26041861     0.08010
H93         H  0.37599588  0.22708630  0.26927876     0.09210
Cu94       Cu  0.42273912  0.33355777  0.26284053     0.44170
Cu95       Cu  0.35226601  0.29956884  0.26694640     0.41990
Cu96       Cu  0.35879292  0.38347465  0.25262482     0.43880
N97         N  0.42559032  0.38046892  0.25783483    -0.34410
N98         N  0.40261380  0.39908264  0.25341247    -0.28660
C99         C  0.41271264  0.42800372  0.25066723    -0.04760
C100        C  0.44335388  0.42722089  0.25388488     0.07460
C101        C  0.45070832  0.39683876  0.25839323     0.01250
H102        H  0.39884300  0.44803582  0.24706780     0.08940
H103        H  0.47273621  0.38726172  0.26168940     0.07980
N104        N  0.31865309  0.35959895  0.25393206    -0.35850
N105        N  0.31697949  0.32955428  0.25877749    -0.28030
C106        C  0.28847628  0.32110731  0.25715209    -0.03270
C107        C  0.27108409  0.34685046  0.25125500     0.05340
C108        C  0.29090029  0.37096267  0.24943976     0.03430
H109        H  0.28102062  0.29773264  0.26007684     0.08540
H110        H  0.28557361  0.39490368  0.24467725     0.07370
C111        C  0.00337620  0.13524573  0.24523317    -0.02220
C112        C  0.00510477  0.85314148  0.25619340    -0.02220
C113        C  0.00900469  0.06189297  0.45136305     0.03400
C114        C  0.00779621  0.03000033  0.45158338    -0.12750
C115        C  0.00896593  0.01260277  0.00103418     0.00900
C116        C  0.01117296  0.02875862  0.05047956    -0.11280
C117        C  0.01074923  0.06061174  0.05057238     0.03390
C118        C  0.00987591  0.07707986  0.00093624    -0.10700
H119        H  0.00583966  0.01949407  0.41230101     0.08990
H120        H  0.01249249  0.01733527  0.08989608     0.06520
H121        H  0.00944768  0.10176073  0.00090258     0.06360
C122        C  0.00255125  0.92928019  0.05091632     0.03400
C123        C  0.00357818  0.91386286  0.00193749    -0.12750
C124        C  0.00557396  0.92993508  0.45255216     0.00900
C125        C  0.00830003  0.96168430  0.45219222    -0.11280
C126        C  0.00716273  0.97818664  0.00109591     0.03390
C127        C  0.00372522  0.96115043  0.05017031    -0.10700
H128        H  0.00303966  0.88918166  0.00208777     0.08990
H129        H  0.01114403  0.97268192  0.41310247     0.06520
H130        H  0.00149997  0.97188918  0.08875813     0.06360
C131        C  0.00261484  0.87232297  0.31050741     0.00110
C132        C  0.02892155  0.88685133  0.33104779    -0.11760
C133        C  0.02993929  0.90741516  0.37370046     0.02350
C134        C  0.00448944  0.91284232  0.40130181     0.00030
C135        C  0.47888371  0.89661931  0.38682251    -0.11700
C136        C  0.47824152  0.87485739  0.34569255     0.02240
H137        H  0.04994257  0.88036405  0.31671658     0.15220
H138        H  0.46017353  0.89859702  0.41239385     0.15220
C139        C  0.45646854  0.85169059  0.35535406     0.36870
C140        C  0.05788724  0.92122342  0.39056103     0.36770
N141        N  0.43899046  0.83379673  0.36725613    -0.43470
N142        N  0.08025549  0.93236267  0.40391327    -0.43470
C143        C  0.00151062  0.91194280  0.10350398     0.00110
C144        C  0.02266579  0.91787513  0.14540034    -0.11760
C145        C  0.02480608  0.90036446  0.19416775     0.02350
C146        C  0.00459959  0.87547517  0.20343563     0.00030
C147        C  0.48277554  0.87102252  0.15960106    -0.11700
C148        C  0.48104791  0.88862717  0.11138266     0.02240
H149        H  0.03877110  0.93577684  0.13870079     0.15220
H150        H  0.46656442  0.85314722  0.16008969     0.15220
C151        C  0.45757001  0.88232237  0.07062905     0.36870
C152        C  0.05041476  0.90821636  0.22848842     0.36770
N153        N  0.43884359  0.87717441  0.03799305    -0.43470
N154        N  0.07180712  0.91617915  0.25222056    -0.43470
C155        C  0.00865081  0.07932384  0.39869704     0.00110
C156        C  0.98542045  0.07493450  0.35960724    -0.11760
C157        C  0.98380625  0.09138579  0.30976337     0.02350
C158        C  0.00574344  0.11370041  0.29787313     0.00030
C159        C  0.03079245  0.11483831  0.33553875    -0.11700
C160        C  0.03175307  0.09915353  0.38594193     0.02240
H161        H  0.46806334  0.05877706  0.36853213     0.15220
H162        H  0.05016893  0.12803060  0.32668072     0.15220
C163        C  0.05703900  0.10354349  0.42365316     0.36870
C164        C  0.45889357  0.08444334  0.27290080     0.36770
N165        N  0.07715177  0.10731643  0.45405993    -0.43470
N166        N  0.43852644  0.07726991  0.24547643    -0.43470
C167        C  0.00799284  0.07682822  0.10236811     0.00110
C168        C  0.48256617  0.09404341  0.10779718    -0.11760
C169        C  0.47878138  0.11104583  0.15432401     0.02350
C170        C  0.00241223  0.11343104  0.19560448     0.00030
C171        C  0.02619678  0.09273206  0.19253521    -0.11700
C172        C  0.02925767  0.07483221  0.14646004     0.02240
H173        H  0.46509159  0.09357727  0.07560184     0.15220
H174        H  0.04364626  0.09215929  0.22471343     0.15220
C175        C  0.05546327  0.05646301  0.14359261     0.36870
C176        C  0.44939239  0.12318853  0.15835193     0.36770
N177        N  0.07644616  0.04172587  0.14104171    -0.43470
N178        N  0.42556203  0.13229570  0.16091116    -0.43470
C179        C  0.43810759  0.20793463  0.25760642     0.00110
C180        C  0.45384339  0.20562614  0.21071092    -0.11760
C181        C  0.47237034  0.18096020  0.20341512     0.02350
C182        C  0.47614296  0.15733323  0.24460481     0.00030
C183        C  0.45817210  0.15913629  0.29011769    -0.11700
C184        C  0.43925709  0.18390810  0.29646937     0.02240
H185        H  0.45241191  0.22394540  0.18016196     0.15220
H186        H  0.46017648  0.14280175  0.32361682     0.15220
C187        C  0.42322241  0.18542715  0.34558170     0.36870
C188        C  0.48762420  0.18148186  0.15320844     0.36770
N189        N  0.41039882  0.18662197  0.38497925    -0.43470
N190        N  0.49882454  0.18253423  0.11193133    -0.43470
C191        C  0.43950081  0.77924966  0.24092904     0.00110
C192        C  0.46734428  0.77584348  0.22051437    -0.11760
C193        C  0.48667180  0.80032542  0.21785134     0.02350
C194        C  0.48060297  0.82791524  0.24510823     0.00030
C195        C  0.45006267  0.83338393  0.24922689    -0.11700
C196        C  0.42961271  0.80907256  0.24986515     0.02240
H197        H  0.47358359  0.75418593  0.20416677     0.15220
H198        H  0.44241618  0.85643144  0.25442157     0.15220
C199        C  0.39950322  0.81530412  0.26216581     0.36870
C200        C  0.00898884  0.79776876  0.17844121     0.36770
N201        N  0.37540677  0.82058096  0.27211610    -0.43470
N202        N  0.02580703  0.79505409  0.14507192    -0.43470
C203        C  0.07653153  0.78680315  0.26467519     0.00110
C204        C  0.05747981  0.78831006  0.30710727    -0.11760
C205        C  0.03699726  0.81174927  0.30891442     0.02350
C206        C  0.03435975  0.83423473  0.26576441     0.00030
C207        C  0.05730472  0.83528802  0.22865752    -0.11700
C208        C  0.07833559  0.81181597  0.22807502     0.02240
H209        H  0.05715707  0.76971390  0.33706131     0.15220
H210        H  0.05703821  0.85180240  0.19543392     0.15220
C211        C  0.09900667  0.81211030  0.18538708     0.36870
C212        C  0.01713545  0.80939284  0.35279612     0.36770
N213        N  0.11560798  0.81246042  0.15120224    -0.43470
N214        N  0.50222116  0.80615528  0.38927098    -0.43470
C215        C  0.02996224  0.15877710  0.24680462     0.00110
C216        C  0.03050522  0.17922046  0.29108925    -0.11760
C217        C  0.04857005  0.20488255  0.29360733     0.02350
C218        C  0.06797822  0.21092739  0.25221053     0.00030
C219        C  0.07001315  0.19008530  0.21045626    -0.11700
C220        C  0.05113106  0.16463076  0.20623515     0.02240
H221        H  0.01536804  0.17578441  0.32339637     0.15220
H222        H  0.08503852  0.19505026  0.17842467     0.15220
C223        C  0.05315505  0.14823213  0.15636112     0.36870
C224        C  0.04630224  0.22500219  0.33897067     0.36770
N225        N  0.05577019  0.13656981  0.11503475    -0.43470
N226        N  0.04437267  0.24114050  0.37523793    -0.43470
N227        N  0.11764274  0.27625487  0.74174065    -0.27020
N228        N  0.09197812  0.28989650  0.74573390    -0.34880
C229        C  0.07071014  0.26882047  0.74999190     0.01320
C230        C  0.08358146  0.24040862  0.74861109     0.07350
C231        C  0.11338321  0.24585946  0.74272334    -0.05750
H232        H  0.04754574  0.27382148  0.75367483     0.08010
H233        H  0.13068787  0.22907533  0.74067992     0.09210
Cu234      Cu  0.08738621  0.33651413  0.74551035     0.44170
Cu235      Cu  0.15635070  0.30131398  0.73889213     0.41990
Cu236      Cu  0.15166772  0.38589369  0.74438888     0.43880
N237        N  0.08502877  0.38334270  0.74450895    -0.34410
N238        N  0.10804233  0.40198156  0.74446591    -0.28660
C239        C  0.09801026  0.43092379  0.74471188    -0.04760
C240        C  0.06737399  0.43001404  0.74455980     0.07460
C241        C  0.06001511  0.39961162  0.74459810     0.01250
H242        H  0.11190645  0.45100737  0.74532637     0.08900
H243        H  0.03803514  0.38992755  0.74525197     0.07980
N244        N  0.19118207  0.36097940  0.74418132    -0.35850
N245        N  0.19214694  0.33087407  0.74231810    -0.28030
C246        C  0.22043797  0.32183881  0.74421736    -0.03270
C247        C  0.23844434  0.34721300  0.74724770     0.05340
C248        C  0.21921339  0.37175133  0.74702280     0.03430
H249        H  0.22733005  0.29829293  0.74375117     0.08540
H250        H  0.22513092  0.39558017  0.74952605     0.07370
N251        N  0.12067359  0.71899998  0.74496206    -0.27020
N252        N  0.09414047  0.70694071  0.74897442    -0.34880
C253        C  0.07471260  0.72936000  0.75533607     0.01320
C254        C  0.08974264  0.75687485  0.75500424     0.07350
C255        C  0.11891592  0.74952099  0.74816058    -0.05750
H256        H  0.05138647  0.72590150  0.76076035     0.08010
H257        H  0.13758518  0.76493684  0.74786249     0.09210
Cu258      Cu  0.08626387  0.66034930  0.74834885     0.44170
Cu259      Cu  0.15739455  0.69202243  0.74087042     0.41990
Cu260      Cu  0.14946077  0.60869141  0.74963745     0.43880
N261        N  0.08281997  0.61317506  0.74855636    -0.34410
N262        N  0.10558533  0.59428710  0.74977381    -0.28660
C263        C  0.09537273  0.56542885  0.75035606    -0.04760
C264        C  0.06484285  0.56638908  0.74913574     0.07460
C265        C  0.05761792  0.59688438  0.74805564     0.01250
H266        H  0.10913261  0.54531357  0.75141676     0.08900
H267        H  0.03565540  0.60655694  0.74733005     0.07980
N268        N  0.18975660  0.63146986  0.74637429    -0.35850
N269        N  0.19177429  0.66149849  0.74294478    -0.28030
C270        C  0.22018921  0.66957989  0.74136930    -0.03270
C271        C  0.23716999  0.64356922  0.74376079     0.05340
C272        C  0.21726012  0.61965504  0.74694535     0.03430
H273        H  0.22780367  0.69290230  0.73863080     0.08540
H274        H  0.22231855  0.59559128  0.74941123     0.07370
N275        N  0.38831201  0.71499805  0.75071697    -0.27020
N276        N  0.41380091  0.70191077  0.76516625    -0.34880
C277        C  0.43510058  0.72309105  0.76617849     0.01320
C278        C  0.42252779  0.75103004  0.75131576     0.07350
C279        C  0.39262520  0.74504661  0.74191630    -0.05750
H280        H  0.45833115  0.71825177  0.77474420     0.08010
H281        H  0.37557188  0.76074917  0.72679596     0.09210
Cu282      Cu  0.41898976  0.65530940  0.77435206     0.44170
Cu283      Cu  0.35050080  0.68934244  0.74086886     0.41990
Cu284      Cu  0.35629830  0.60513713  0.74696462     0.43880
N285        N  0.42248600  0.60864744  0.76757312    -0.34410
N286        N  0.40007925  0.59018019  0.75513399    -0.28660
C287        C  0.41073200  0.56186378  0.74928841    -0.04760
C288        C  0.44111952  0.56279832  0.75925749     0.07460
C289        C  0.44778035  0.59267626  0.77069222     0.01250
H290        H  0.39740404  0.54217041  0.73860076     0.08900
H291        H  0.46953691  0.60232954  0.77902244     0.07980
N292        N  0.31663387  0.62939506  0.74351784    -0.35850
N293        N  0.31545638  0.65950300  0.74083273    -0.28030
C294        C  0.28728247  0.66847001  0.74032786    -0.03270
C295        C  0.26954501  0.64302229  0.74282757     0.05340
C296        C  0.28876275  0.61847050  0.74480635     0.03430
H297        H  0.28037418  0.69203734  0.73889792     0.08540
H298        H  0.28299754  0.59458003  0.74743475     0.07370
O299        O  0.03876962  0.46399627  0.79335271    -0.72670
O300        O  0.47530354  0.52732679  0.80036028    -0.73650
O301        O  0.47619710  0.46230709  0.79790677    -0.62270
O302        O  0.03758627  0.52875880  0.79561774    -0.70680
O303        O  0.03202893  0.53139670  0.70492853    -0.70240
O304        O  0.47134229  0.46423521  0.70714238    -0.61490
O305        O  0.46947881  0.52884527  0.70966546    -0.74000
O306        O  0.03407879  0.46635920  0.70259408    -0.72780
Cu307      Cu  0.00711817  0.49550715  0.79996412     1.04560
Cu308      Cu  0.00160333  0.49777859  0.70287729     1.04330
C309        C  0.04626424  0.45511800  0.74688508     0.93520
C310        C  0.46260506  0.53815286  0.75625854     0.92660
C311        C  0.46428727  0.45273562  0.75295138     0.84810
C312        C  0.04409714  0.54076570  0.74988288     0.91080
N313        N  0.39059136  0.27389165  0.77016571    -0.27020
N314        N  0.41676541  0.28697122  0.76748880    -0.34880
C315        C  0.43747988  0.26538452  0.76518336     0.01320
C316        C  0.42376496  0.23727434  0.76707008     0.07350
C317        C  0.39395577  0.24339832  0.77016568    -0.05750
H318        H  0.46071615  0.26981968  0.76041889     0.08010
H319        H  0.37599586  0.22708630  0.76927869     0.09210
Cu320      Cu  0.42273912  0.33355777  0.76284075     0.44170
Cu321      Cu  0.35226600  0.29956884  0.76694635     0.41990
Cu322      Cu  0.35879291  0.38347465  0.75262474     0.43880
N323        N  0.42559031  0.38046892  0.75783498    -0.34410
N324        N  0.40261379  0.39908264  0.75341248    -0.28660
C325        C  0.41271263  0.42800371  0.75066718    -0.04760
C326        C  0.44335387  0.42722089  0.75388494     0.07460
C327        C  0.45070831  0.39683877  0.75839341     0.01250
H328        H  0.39884299  0.44803581  0.74706763     0.08940
H329        H  0.47273620  0.38726172  0.76168969     0.07980
N330        N  0.31865307  0.35959895  0.75393196    -0.35850
N331        N  0.31697947  0.32955428  0.75877739    -0.28030
C332        C  0.28847626  0.32110731  0.75715200    -0.03270
C333        C  0.27108407  0.34685046  0.75125489     0.05340
C334        C  0.29090027  0.37096267  0.74943965     0.03430
H335        H  0.28102061  0.29773264  0.76007676     0.08540
H336        H  0.28557359  0.39490368  0.74467715     0.07370
C337        C  0.00337617  0.13524574  0.74523319    -0.02220
C338        C  0.00510478  0.85314148  0.75619340    -0.02220
C339        C  0.00900470  0.06189296  0.95136304     0.03400
C340        C  0.00779620  0.03000032  0.95158338    -0.12750
C341        C  0.00896591  0.01260278  0.50103418     0.00900
C342        C  0.01117291  0.02875863  0.55047957    -0.11280
C343        C  0.01074918  0.06061175  0.55057238     0.03390
C344        C  0.00987588  0.07707988  0.50093624    -0.10700
H345        H  0.00583963  0.01949406  0.91230101     0.08990
H346        H  0.01249242  0.01733529  0.58989609     0.06520
H347        H  0.00944765  0.10176074  0.50090259     0.06360
C348        C  0.00255127  0.92928019  0.55091632     0.03400
C349        C  0.00357818  0.91386287  0.50193749    -0.12750
C350        C  0.00557397  0.92993507  0.95255217     0.00900
C351        C  0.00830006  0.96168429  0.95219223    -0.11280
C352        C  0.00716272  0.97818665  0.50109591     0.03390
C353        C  0.00372524  0.96115043  0.55017031    -0.10700
H354        H  0.00303967  0.88918166  0.50208776     0.08990
H355        H  0.01114408  0.97268191  0.91310249     0.06520
H356        H  0.00150001  0.97188917  0.58875815     0.06360
C357        C  0.00261484  0.87232297  0.81050741     0.00110
C358        C  0.02892156  0.88685133  0.83104779    -0.11760
C359        C  0.02993930  0.90741515  0.87370046     0.02350
C360        C  0.00448945  0.91284231  0.90130181     0.00030
C361        C  0.47888371  0.89661931  0.88682251    -0.11700
C362        C  0.47824152  0.87485739  0.84569255     0.02240
H363        H  0.04994258  0.88036404  0.81671658     0.15220
H364        H  0.46017354  0.89859702  0.91239385     0.15220
C365        C  0.45646854  0.85169059  0.85535404     0.36870
C366        C  0.05788726  0.92122340  0.89056104     0.36770
N367        N  0.43899045  0.83379673  0.86725612    -0.43470
N368        N  0.08025551  0.93236265  0.90391329    -0.43470
C369        C  0.00151064  0.91194279  0.60350397     0.00110
C370        C  0.02266581  0.91787512  0.64540034    -0.11760
C371        C  0.02480610  0.90036445  0.69416775     0.02350
C372        C  0.00459960  0.87547517  0.70343563     0.00030
C373        C  0.48277555  0.87102252  0.65960105    -0.11700
C374        C  0.48104792  0.88862717  0.61138265     0.02240
H375        H  0.03877113  0.93577683  0.63870078     0.15220
H376        H  0.46656442  0.85314722  0.66008969     0.15220
C377        C  0.45757002  0.88232238  0.57062905     0.36870
C378        C  0.05041477  0.90821636  0.72848842     0.36770
N379        N  0.43884360  0.87717442  0.53799304    -0.43470
N380        N  0.07180713  0.91617914  0.75222058    -0.43470
C381        C  0.00865081  0.07932383  0.89869704     0.00110
C382        C  0.98542044  0.07493450  0.85960726    -0.11760
C383        C  0.98380623  0.09138579  0.80976339     0.02350
C384        C  0.00574343  0.11370041  0.79787314     0.00030
C385        C  0.03079244  0.11483830  0.83553874    -0.11700
C386        C  0.03175307  0.09915352  0.88594191     0.02240
H387        H  0.46806333  0.05877706  0.86853215     0.15220
H388        H  0.05016893  0.12803059  0.82668069     0.15220
C389        C  0.05703901  0.10354346  0.92365312     0.36870
C390        C  0.45889355  0.08444335  0.77290083     0.36770
N391        N  0.07715179  0.10731639  0.95405987    -0.43470
N392        N  0.43852641  0.07726992  0.74547647    -0.43470
C393        C  0.00799279  0.07682824  0.60236811     0.00110
C394        C  0.48256613  0.09404343  0.60779720    -0.11760
C395        C  0.47878135  0.11104584  0.65432402     0.02350
C396        C  0.00241219  0.11343105  0.69560449     0.00030
C397        C  0.02619674  0.09273207  0.69253520    -0.11700
C398        C  0.02925763  0.07483222  0.64646003     0.02240
H399        H  0.46509155  0.09357728  0.57560186     0.15220
H400        H  0.04364623  0.09215930  0.72471341     0.15220
C401        C  0.05546323  0.05646302  0.64359259     0.36870
C402        C  0.44939236  0.12318854  0.65835196     0.36770
N403        N  0.07644611  0.04172588  0.64104168    -0.43470
N404        N  0.42556200  0.13229571  0.66091119    -0.43470
C405        C  0.43810758  0.20793463  0.75760651     0.00110
C406        C  0.45384336  0.20562615  0.71071100    -0.11760
C407        C  0.47237031  0.18096021  0.70341517     0.02350
C408        C  0.47614294  0.15733323  0.74460486     0.00030
C409        C  0.45817209  0.15913629  0.79011775    -0.11700
C410        C  0.43925708  0.18390809  0.79646945     0.02240
H411        H  0.45241187  0.22394541  0.68016206     0.15220
H412        H  0.46017647  0.14280174  0.82361688     0.15220
C413        C  0.42322241  0.18542714  0.84558180     0.36870
C414        C  0.48762416  0.18148187  0.65320848     0.36770
N415        N  0.41039884  0.18662196  0.88497936    -0.43470
N416        N  0.49882449  0.18253425  0.61193136    -0.43470
C417        C  0.43950080  0.77924967  0.74092902     0.00110
C418        C  0.46734428  0.77584348  0.72051436    -0.11760
C419        C  0.48667179  0.80032542  0.71785133     0.02350
C420        C  0.48060297  0.82791524  0.74510823     0.00030
C421        C  0.45006266  0.83338393  0.74922687    -0.11700
C422        C  0.42961271  0.80907257  0.74986513     0.02240
H423        H  0.47358359  0.75418593  0.70416676     0.15220
H424        H  0.44241618  0.85643144  0.75442156     0.15220
C425        C  0.39950322  0.81530413  0.76216579     0.36870
C426        C  0.00898884  0.79776876  0.67844120     0.36770
N427        N  0.37540676  0.82058097  0.77211608    -0.43470
N428        N  0.02580703  0.79505409  0.64507191    -0.43470
C429        C  0.07653153  0.78680315  0.76467519     0.00110
C430        C  0.05747980  0.78831005  0.80710727    -0.11760
C431        C  0.03699726  0.81174926  0.80891441     0.02350
C432        C  0.03435975  0.83423472  0.76576441     0.00030
C433        C  0.05730472  0.83528801  0.72865752    -0.11700
C434        C  0.07833559  0.81181596  0.72807502     0.02240
H435        H  0.05715707  0.76971389  0.83706131     0.15220
H436        H  0.05703821  0.85180239  0.69543392     0.15220
C437        C  0.09900668  0.81211029  0.68538708     0.36870
C438        C  0.01713545  0.80939283  0.85279611     0.36770
N439        N  0.11560799  0.81246041  0.65120225    -0.43470
N440        N  0.50222115  0.80615528  0.88927097    -0.43470
C441        C  0.02996221  0.15877710  0.74680463     0.00110
C442        C  0.03050521  0.17922046  0.79108926    -0.11760
C443        C  0.04857004  0.20488254  0.79360734     0.02350
C444        C  0.06797820  0.21092738  0.75221054     0.00030
C445        C  0.07001312  0.19008531  0.71045625    -0.11700
C446        C  0.05113103  0.16463077  0.70623515     0.02240
H447        H  0.01536803  0.17578440  0.82339639     0.15220
H448        H  0.08503849  0.19505027  0.67842465     0.15220
C449        C  0.05315500  0.14823214  0.65636109     0.36870
C450        C  0.04630224  0.22500218  0.83897070     0.36770
N451        N  0.05577012  0.13656983  0.61503472    -0.43470
N452        N  0.04437268  0.24114048  0.87523797    -0.43470
N453        N  0.61764276  0.27625487  0.24174065    -0.27020
N454        N  0.59197813  0.28989650  0.24573389    -0.34880
C455        C  0.57071016  0.26882047  0.24999188     0.01320
C456        C  0.58358148  0.24040862  0.24861109     0.07350
C457        C  0.61338323  0.24585947  0.24272335    -0.05750
H458        H  0.54754576  0.27382149  0.25367479     0.08010
H459        H  0.63068789  0.22907533  0.24067995     0.09210
Cu460      Cu  0.58738623  0.33651413  0.24551034     0.44170
Cu461      Cu  0.65635072  0.30131399  0.23889216     0.41990
Cu462      Cu  0.65166774  0.38589369  0.24438893     0.43880
N463        N  0.58502879  0.38334271  0.24450896    -0.34410
N464        N  0.60804234  0.40198156  0.24446594    -0.28660
C465        C  0.59801027  0.43092379  0.24471191    -0.04760
C466        C  0.56737400  0.43001405  0.24455982     0.07460
C467        C  0.56001513  0.39961163  0.24459811     0.01250
H468        H  0.61190646  0.45100737  0.24532642     0.08900
H469        H  0.53803515  0.38992756  0.24525195     0.07980
N470        N  0.69118209  0.36097940  0.24418139    -0.35850
N471        N  0.69214696  0.33087408  0.24231816    -0.28030
C472        C  0.72043799  0.32183882  0.24421743    -0.03270
C473        C  0.73844435  0.34721300  0.24724779     0.05340
C474        C  0.71921341  0.37175133  0.24702288     0.03430
H475        H  0.72733007  0.29829293  0.24375124     0.08540
H476        H  0.72513094  0.39558017  0.24952614     0.07370
N477        N  0.62067360  0.71899999  0.24496208    -0.27020
N478        N  0.59414047  0.70694072  0.24897442    -0.34880
C479        C  0.57471261  0.72936001  0.25533606     0.01320
C480        C  0.58974265  0.75687486  0.25500423     0.07350
C481        C  0.61891592  0.74952099  0.24816059    -0.05750
H482        H  0.55138647  0.72590150  0.26076033     0.08010
H483        H  0.63758518  0.76493684  0.24786252     0.09210
Cu484      Cu  0.58626388  0.66034930  0.24834886     0.44170
Cu485      Cu  0.65739456  0.69202243  0.24087048     0.41990
Cu486      Cu  0.64946078  0.60869141  0.24963752     0.43880
N487        N  0.58281997  0.61317507  0.24855640    -0.34410
N488        N  0.60558533  0.59428710  0.24977387    -0.28660
C489        C  0.59537274  0.56542885  0.25035613    -0.04760
C490        C  0.56484285  0.56638908  0.24913579     0.07460
C491        C  0.55761793  0.59688438  0.24805567     0.01250
H492        H  0.60913262  0.54531358  0.25141684     0.08900
H493        H  0.53565541  0.60655695  0.24733005     0.07980
N494        N  0.68975661  0.63146986  0.24637436    -0.35850
N495        N  0.69177430  0.66149850  0.24294485    -0.28030
C496        C  0.72018922  0.66957989  0.24136937    -0.03270
C497        C  0.73717000  0.64356922  0.24376087     0.05340
C498        C  0.71726013  0.61965504  0.24694543     0.03430
H499        H  0.72780368  0.69290230  0.23863087     0.08540
H500        H  0.72231856  0.59559128  0.24941130     0.07370
N501        N  0.88831202  0.71499805  0.25071699    -0.27020
N502        N  0.91380092  0.70191077  0.26516626    -0.34880
C503        C  0.93510059  0.72309104  0.26617849     0.01320
C504        C  0.92252780  0.75103004  0.25131577     0.07350
C505        C  0.89262520  0.74504660  0.24191633    -0.05750
H506        H  0.95833115  0.71825177  0.27474419     0.08010
H507        H  0.87557188  0.76074916  0.22679599     0.09210
Cu508      Cu  0.91898977  0.65530939  0.27435206     0.44170
Cu509      Cu  0.85050080  0.68934244  0.24086890     0.41990
Cu510      Cu  0.85629831  0.60513713  0.24696465     0.43880
N511        N  0.92248600  0.60864744  0.26757311    -0.34410
N512        N  0.90007926  0.59018018  0.25513399    -0.28660
C513        C  0.91073201  0.56186377  0.24928841    -0.04760
C514        C  0.94111952  0.56279832  0.25925746     0.07460
C515        C  0.94778036  0.59267626  0.27069218     0.01250
H516        H  0.89740405  0.54217041  0.23860077     0.08900
H517        H  0.96953692  0.60232955  0.27902239     0.07980
N518        N  0.81663388  0.62939505  0.24351789    -0.35850
N519        N  0.81545639  0.65950299  0.24083278    -0.28030
C520        C  0.78728248  0.66847001  0.24032792    -0.03270
C521        C  0.76954502  0.64302228  0.24282764     0.05340
C522        C  0.78876276  0.61847049  0.24480642     0.03430
H523        H  0.78037419  0.69203734  0.23889798     0.08540
H524        H  0.78299755  0.59458003  0.24743481     0.07370
O525        O  0.53876962  0.46399626  0.29335272    -0.72670
O526        O  0.97530355  0.52732679  0.30036026    -0.73650
O527        O  0.97619710  0.46230710  0.29790675    -0.62270
O528        O  0.53758627  0.52875880  0.29561777    -0.70680
O529        O  0.53202895  0.53139671  0.20492855    -0.70240
O530        O  0.97134232  0.46423521  0.20714235    -0.61490
O531        O  0.96947883  0.52884527  0.20966545    -0.74000
O532        O  0.53407882  0.46635921  0.20259409    -0.72780
Cu533      Cu  0.50711817  0.49550714  0.29996411     1.04560
Cu534      Cu  0.50160335  0.49777860  0.20287728     1.04330
C535        C  0.54626425  0.45511800  0.24688510     0.93520
C536        C  0.96260507  0.53815286  0.25625852     0.92660
C537        C  0.96428729  0.45273562  0.25295134     0.84810
C538        C  0.54409715  0.54076571  0.24988291     0.91080
N539        N  0.89059137  0.27389165  0.27016566    -0.27020
N540        N  0.91676542  0.28697122  0.26748864    -0.34880
C541        C  0.93747989  0.26538453  0.26518315     0.01320
C542        C  0.92376498  0.23727434  0.26706996     0.07350
C543        C  0.89395579  0.24339832  0.27016565    -0.05750
H544        H  0.96071616  0.26981969  0.26041861     0.08010
H545        H  0.87599588  0.22708630  0.26927876     0.09210
Cu546      Cu  0.92273912  0.33355777  0.26284053     0.44170
Cu547      Cu  0.85226601  0.29956884  0.26694640     0.41990
Cu548      Cu  0.85879292  0.38347465  0.25262482     0.43880
N549        N  0.92559032  0.38046892  0.25783483    -0.34410
N550        N  0.90261380  0.39908264  0.25341247    -0.28660
C551        C  0.91271264  0.42800372  0.25066723    -0.04760
C552        C  0.94335389  0.42722089  0.25388488     0.07460
C553        C  0.95070832  0.39683877  0.25839323     0.01250
H554        H  0.89884300  0.44803582  0.24706779     0.08940
H555        H  0.97273621  0.38726172  0.26168941     0.07980
N556        N  0.81865309  0.35959896  0.25393206    -0.35850
N557        N  0.81697949  0.32955428  0.25877749    -0.28030
C558        C  0.78847627  0.32110731  0.25715209    -0.03270
C559        C  0.77108409  0.34685046  0.25125500     0.05340
C560        C  0.79090029  0.37096267  0.24943976     0.03430
H561        H  0.78102062  0.29773264  0.26007684     0.08540
H562        H  0.78557361  0.39490369  0.24467725     0.07370
C563        C  0.50337620  0.13524573  0.24523317    -0.02220
C564        C  0.50510478  0.85314148  0.25619340    -0.02220
C565        C  0.50900469  0.06189297  0.45136305     0.03400
C566        C  0.50779621  0.03000033  0.45158338    -0.12750
C567        C  0.50896593  0.01260277  0.00103418     0.00900
C568        C  0.51117297  0.02875862  0.05047956    -0.11280
C569        C  0.51074924  0.06061174  0.05057238     0.03390
C570        C  0.50987591  0.07707986  0.00093624    -0.10700
H571        H  0.50583966  0.01949407  0.41230101     0.08990
H572        H  0.51249250  0.01733527  0.08989608     0.06520
H573        H  0.50944769  0.10176073  0.00090258     0.06360
C574        C  0.50255125  0.92928019  0.05091632     0.03400
C575        C  0.50357818  0.91386286  0.00193749    -0.12750
C576        C  0.50557397  0.92993507  0.45255216     0.00900
C577        C  0.50830004  0.96168430  0.45219223    -0.11280
C578        C  0.50716273  0.97818664  0.00109591     0.03390
C579        C  0.50372522  0.96115043  0.05017031    -0.10700
H580        H  0.50303966  0.88918166  0.00208777     0.08990
H581        H  0.51114405  0.97268192  0.41310248     0.06520
H582        H  0.50149998  0.97188918  0.08875813     0.06360
C583        C  0.50261484  0.87232297  0.31050741     0.00110
C584        C  0.52892156  0.88685133  0.33104779    -0.11760
C585        C  0.52993930  0.90741515  0.37370046     0.02350
C586        C  0.50448945  0.91284232  0.40130181     0.00030
C587        C  0.97888370  0.89661931  0.38682251    -0.11700
C588        C  0.97824151  0.87485739  0.34569255     0.02240
H589        H  0.54994258  0.88036405  0.31671658     0.15220
H590        H  0.96017352  0.89859702  0.41239385     0.15220
C591        C  0.95646853  0.85169058  0.35535405     0.36870
C592        C  0.55788725  0.92122341  0.39056103     0.36770
N593        N  0.93899046  0.83379672  0.36725613    -0.43470
N594        N  0.58025550  0.93236267  0.40391327    -0.43470
C595        C  0.50151063  0.91194280  0.10350398     0.00110
C596        C  0.52266579  0.91787513  0.14540034    -0.11760
C597        C  0.52480608  0.90036446  0.19416775     0.02350
C598        C  0.50459959  0.87547517  0.20343563     0.00030
C599        C  0.98277554  0.87102252  0.15960106    -0.11700
C600        C  0.98104791  0.88862717  0.11138266     0.02240
H601        H  0.53877111  0.93577684  0.13870079     0.15220
H602        H  0.96656442  0.85314722  0.16008969     0.15220
C603        C  0.95757000  0.88232237  0.07062905     0.36870
C604        C  0.55041476  0.90821636  0.22848841     0.36770
N605        N  0.93884359  0.87717441  0.03799304    -0.43470
N606        N  0.57180712  0.91617915  0.25222056    -0.43470
C607        C  0.50865081  0.07932384  0.39869704     0.00110
C608        C  0.48542045  0.07493450  0.35960724    -0.11760
C609        C  0.48380625  0.09138579  0.30976337     0.02350
C610        C  0.50574345  0.11370041  0.29787313     0.00030
C611        C  0.53079245  0.11483831  0.33553875    -0.11700
C612        C  0.53175307  0.09915353  0.38594193     0.02240
H613        H  0.96806334  0.05877706  0.36853213     0.15220
H614        H  0.55016894  0.12803060  0.32668072     0.15220
C615        C  0.55703900  0.10354349  0.42365316     0.36870
C616        C  0.95889357  0.08444334  0.27290080     0.36770
N617        N  0.57715177  0.10731643  0.45405993    -0.43470
N618        N  0.93852644  0.07726991  0.24547643    -0.43470
C619        C  0.50799284  0.07682822  0.10236811     0.00110
C620        C  0.98256616  0.09404342  0.10779719    -0.11760
C621        C  0.97878138  0.11104583  0.15432401     0.02350
C622        C  0.50241223  0.11343104  0.19560448     0.00030
C623        C  0.52619678  0.09273206  0.19253521    -0.11700
C624        C  0.52925767  0.07483221  0.14646004     0.02240
H625        H  0.96509159  0.09357727  0.07560184     0.15220
H626        H  0.54364626  0.09215929  0.22471343     0.15220
C627        C  0.55546328  0.05646301  0.14359261     0.36870
C628        C  0.94939239  0.12318853  0.15835193     0.36770
N629        N  0.57644616  0.04172587  0.14104171    -0.43470
N630        N  0.92556203  0.13229570  0.16091116    -0.43470
C631        C  0.93810759  0.20793463  0.25760642     0.00110
C632        C  0.95384339  0.20562614  0.21071092    -0.11760
C633        C  0.97237034  0.18096020  0.20341512     0.02350
C634        C  0.97614296  0.15733323  0.24460482     0.00030
C635        C  0.95817210  0.15913629  0.29011769    -0.11700
C636        C  0.93925709  0.18390810  0.29646937     0.02240
H637        H  0.95241190  0.22394540  0.18016197     0.15220
H638        H  0.96017648  0.14280175  0.32361683     0.15220
C639        C  0.92322240  0.18542715  0.34558170     0.36870
C640        C  0.98762420  0.18148186  0.15320844     0.36770
N641        N  0.91039882  0.18662197  0.38497925    -0.43470
N642        N  0.99882454  0.18253423  0.11193133    -0.43470
C643        C  0.93950080  0.77924966  0.24092903     0.00110
C644        C  0.96734428  0.77584348  0.22051436    -0.11760
C645        C  0.98667179  0.80032542  0.21785134     0.02350
C646        C  0.98060297  0.82791523  0.24510823     0.00030
C647        C  0.95006266  0.83338393  0.24922688    -0.11700
C648        C  0.92961271  0.80907256  0.24986514     0.02240
H649        H  0.97358359  0.75418593  0.20416676     0.15220
H650        H  0.94241617  0.85643144  0.25442157     0.15220
C651        C  0.89950322  0.81530412  0.26216581     0.36870
C652        C  0.50898885  0.79776876  0.17844121     0.36770
N653        N  0.87540676  0.82058096  0.27211609    -0.43470
N654        N  0.52580703  0.79505409  0.14507192    -0.43470
C655        C  0.57653153  0.78680315  0.26467519     0.00110
C656        C  0.55747981  0.78831006  0.30710727    -0.11760
C657        C  0.53699727  0.81174927  0.30891441     0.02350
C658        C  0.53435975  0.83423473  0.26576441     0.00030
C659        C  0.55730472  0.83528802  0.22865752    -0.11700
C660        C  0.57833559  0.81181596  0.22807502     0.02240
H661        H  0.55715708  0.76971390  0.33706131     0.15220
H662        H  0.55703821  0.85180240  0.19543392     0.15220
C663        C  0.59900668  0.81211030  0.18538707     0.36870
C664        C  0.51713545  0.80939284  0.35279612     0.36770
N665        N  0.61560799  0.81246042  0.15120224    -0.43470
N666        N  0.00222115  0.80615528  0.38927098    -0.43470
C667        C  0.52996224  0.15877709  0.24680462     0.00110
C668        C  0.53050522  0.17922046  0.29108924    -0.11760
C669        C  0.54857005  0.20488255  0.29360733     0.02350
C670        C  0.56797822  0.21092739  0.25221053     0.00030
C671        C  0.57001315  0.19008530  0.21045626    -0.11700
C672        C  0.55113107  0.16463076  0.20623515     0.02240
H673        H  0.51536804  0.17578441  0.32339637     0.15220
H674        H  0.58503853  0.19505026  0.17842467     0.15220
C675        C  0.55315505  0.14823213  0.15636112     0.36870
C676        C  0.54630224  0.22500219  0.33897067     0.36770
N677        N  0.55577019  0.13656981  0.11503475    -0.43470
N678        N  0.54437267  0.24114050  0.37523793    -0.43470
N679        N  0.61764274  0.27625487  0.74174065    -0.27020
N680        N  0.59197812  0.28989650  0.74573390    -0.34880
C681        C  0.57071014  0.26882047  0.74999190     0.01320
C682        C  0.58358146  0.24040862  0.74861110     0.07350
C683        C  0.61338321  0.24585947  0.74272335    -0.05750
H684        H  0.54754574  0.27382149  0.75367483     0.08010
H685        H  0.63068787  0.22907533  0.74067992     0.09210
Cu686      Cu  0.58738621  0.33651413  0.74551035     0.44170
Cu687      Cu  0.65635070  0.30131399  0.73889213     0.41990
Cu688      Cu  0.65166772  0.38589369  0.74438888     0.43880
N689        N  0.58502877  0.38334271  0.74450895    -0.34410
N690        N  0.60804232  0.40198156  0.74446591    -0.28660
C691        C  0.59801026  0.43092379  0.74471188    -0.04760
C692        C  0.56737398  0.43001404  0.74455980     0.07460
C693        C  0.56001511  0.39961162  0.74459810     0.01250
H694        H  0.61190645  0.45100737  0.74532637     0.08900
H695        H  0.53803514  0.38992755  0.74525197     0.07980
N696        N  0.69118207  0.36097940  0.74418132    -0.35850
N697        N  0.69214694  0.33087408  0.74231810    -0.28030
C698        C  0.72043797  0.32183882  0.74421736    -0.03270
C699        C  0.73844434  0.34721300  0.74724770     0.05340
C700        C  0.71921339  0.37175133  0.74702280     0.03430
H701        H  0.72733005  0.29829293  0.74375117     0.08540
H702        H  0.72513092  0.39558017  0.74952605     0.07370
N703        N  0.62067360  0.71899998  0.74496205    -0.27020
N704        N  0.59414047  0.70694071  0.74897441    -0.34880
C705        C  0.57471260  0.72936000  0.75533607     0.01320
C706        C  0.58974264  0.75687486  0.75500423     0.07350
C707        C  0.61891592  0.74952099  0.74816057    -0.05750
H708        H  0.55138647  0.72590150  0.76076035     0.08010
H709        H  0.63758518  0.76493684  0.74786248     0.09210
Cu710      Cu  0.58626387  0.66034930  0.74834884     0.44170
Cu711      Cu  0.65739456  0.69202243  0.74087042     0.41990
Cu712      Cu  0.64946077  0.60869141  0.74963745     0.43880
N713        N  0.58281997  0.61317506  0.74855636    -0.34410
N714        N  0.60558533  0.59428710  0.74977381    -0.28660
C715        C  0.59537273  0.56542885  0.75035606    -0.04760
C716        C  0.56484285  0.56638908  0.74913574     0.07460
C717        C  0.55761792  0.59688438  0.74805564     0.01250
H718        H  0.60913261  0.54531357  0.75141676     0.08900
H719        H  0.53565540  0.60655694  0.74733004     0.07980
N720        N  0.68975660  0.63146986  0.74637429    -0.35850
N721        N  0.69177430  0.66149849  0.74294478    -0.28030
C722        C  0.72018921  0.66957989  0.74136930    -0.03270
C723        C  0.73716999  0.64356922  0.74376079     0.05340
C724        C  0.71726012  0.61965504  0.74694535     0.03430
H725        H  0.72780367  0.69290230  0.73863080     0.08540
H726        H  0.72231855  0.59559128  0.74941123     0.07370
N727        N  0.88831201  0.71499805  0.75071697    -0.27020
N728        N  0.91380091  0.70191077  0.76516625    -0.34880
C729        C  0.93510058  0.72309105  0.76617848     0.01320
C730        C  0.92252779  0.75103004  0.75131575     0.07350
C731        C  0.89262520  0.74504661  0.74191630    -0.05750
H732        H  0.95833115  0.71825177  0.77474419     0.08010
H733        H  0.87557188  0.76074917  0.72679596     0.09210
Cu734      Cu  0.91898976  0.65530939  0.77435206     0.44170
Cu735      Cu  0.85050080  0.68934244  0.74086887     0.41990
Cu736      Cu  0.85629830  0.60513713  0.74696462     0.43880
N737        N  0.92248600  0.60864744  0.76757312    -0.34410
N738        N  0.90007925  0.59018019  0.75513399    -0.28660
C739        C  0.91073200  0.56186378  0.74928842    -0.04760
C740        C  0.94111952  0.56279832  0.75925749     0.07460
C741        C  0.94778036  0.59267626  0.77069221     0.01250
H742        H  0.89740405  0.54217041  0.73860076     0.08900
H743        H  0.96953691  0.60232954  0.77902243     0.07980
N744        N  0.81663387  0.62939506  0.74351784    -0.35850
N745        N  0.81545638  0.65950299  0.74083273    -0.28030
C746        C  0.78728247  0.66847001  0.74032786    -0.03270
C747        C  0.76954501  0.64302228  0.74282758     0.05340
C748        C  0.78876275  0.61847050  0.74480636     0.03430
H749        H  0.78037418  0.69203734  0.73889792     0.08540
H750        H  0.78299754  0.59458003  0.74743476     0.07370
O751        O  0.53876962  0.46399627  0.79335271    -0.72670
O752        O  0.97530354  0.52732679  0.80036028    -0.73650
O753        O  0.97619711  0.46230709  0.79790677    -0.62270
O754        O  0.53758627  0.52875881  0.79561774    -0.70680
O755        O  0.53202893  0.53139670  0.70492853    -0.70240
O756        O  0.97134229  0.46423521  0.70714238    -0.61490
O757        O  0.96947882  0.52884527  0.70966546    -0.74000
O758        O  0.53407879  0.46635920  0.70259408    -0.72780
Cu759      Cu  0.50711817  0.49550715  0.79996412     1.04560
Cu760      Cu  0.50160333  0.49777859  0.70287729     1.04330
C761        C  0.54626423  0.45511800  0.74688508     0.93520
C762        C  0.96260506  0.53815286  0.75625854     0.92660
C763        C  0.96428727  0.45273562  0.75295138     0.84810
C764        C  0.54409714  0.54076570  0.74988288     0.91080
N765        N  0.89059136  0.27389165  0.77016571    -0.27020
N766        N  0.91676541  0.28697122  0.76748881    -0.34880
C767        C  0.93747988  0.26538453  0.76518336     0.01320
C768        C  0.92376496  0.23727434  0.76707008     0.07350
C769        C  0.89395577  0.24339832  0.77016568    -0.05750
H770        H  0.96071615  0.26981968  0.76041890     0.08010
H771        H  0.87599586  0.22708630  0.76927869     0.09210
Cu772      Cu  0.92273912  0.33355777  0.76284075     0.44170
Cu773      Cu  0.85226600  0.29956884  0.76694635     0.41990
Cu774      Cu  0.85879290  0.38347465  0.75262474     0.43880
N775        N  0.92559031  0.38046892  0.75783498    -0.34410
N776        N  0.90261379  0.39908264  0.75341248    -0.28660
C777        C  0.91271263  0.42800372  0.75066717    -0.04760
C778        C  0.94335387  0.42722089  0.75388494     0.07460
C779        C  0.95070831  0.39683877  0.75839341     0.01250
H780        H  0.89884299  0.44803581  0.74706762     0.08940
H781        H  0.97273620  0.38726172  0.76168969     0.07980
N782        N  0.81865307  0.35959896  0.75393196    -0.35850
N783        N  0.81697947  0.32955428  0.75877739    -0.28030
C784        C  0.78847626  0.32110731  0.75715199    -0.03270
C785        C  0.77108407  0.34685047  0.75125489     0.05340
C786        C  0.79090027  0.37096267  0.74943965     0.03430
H787        H  0.78102061  0.29773264  0.76007676     0.08540
H788        H  0.78557359  0.39490369  0.74467714     0.07370
C789        C  0.50337618  0.13524573  0.74523318    -0.02220
C790        C  0.50510478  0.85314148  0.75619340    -0.02220
C791        C  0.50900471  0.06189296  0.95136304     0.03400
C792        C  0.50779621  0.03000032  0.95158337    -0.12750
C793        C  0.50896592  0.01260278  0.50103418     0.00900
C794        C  0.51117293  0.02875863  0.55047957    -0.11280
C795        C  0.51074920  0.06061175  0.55057238     0.03390
C796        C  0.50987588  0.07707987  0.50093624    -0.10700
H797        H  0.50583963  0.01949406  0.91230101     0.08990
H798        H  0.51249244  0.01733528  0.58989609     0.06520
H799        H  0.50944765  0.10176074  0.50090259     0.06360
C800        C  0.50255126  0.92928019  0.55091632     0.03400
C801        C  0.50357819  0.91386287  0.50193749    -0.12750
C802        C  0.50557397  0.92993507  0.95255217     0.00900
C803        C  0.50830006  0.96168429  0.95219223    -0.11280
C804        C  0.50716273  0.97818665  0.50109591     0.03390
C805        C  0.50372524  0.96115043  0.55017031    -0.10700
H806        H  0.50303968  0.88918166  0.50208776     0.08990
H807        H  0.51114409  0.97268191  0.91310249     0.06520
H808        H  0.50150000  0.97188918  0.58875814     0.06360
C809        C  0.50261484  0.87232297  0.81050741     0.00110
C810        C  0.52892156  0.88685132  0.83104779    -0.11760
C811        C  0.52993930  0.90741514  0.87370046     0.02350
C812        C  0.50448945  0.91284231  0.90130181     0.00030
C813        C  0.97888371  0.89661931  0.88682251    -0.11700
C814        C  0.97824152  0.87485739  0.84569255     0.02240
H815        H  0.54994259  0.88036404  0.81671658     0.15220
H816        H  0.96017353  0.89859702  0.91239385     0.15220
C817        C  0.95646854  0.85169059  0.85535405     0.36870
C818        C  0.55788726  0.92122340  0.89056104     0.36770
N819        N  0.93899045  0.83379673  0.86725612    -0.43470
N820        N  0.58025551  0.93236265  0.90391328    -0.43470
C821        C  0.50151064  0.91194280  0.60350397     0.00110
C822        C  0.52266581  0.91787512  0.64540034    -0.11760
C823        C  0.52480609  0.90036445  0.69416775     0.02350
C824        C  0.50459960  0.87547517  0.70343563     0.00030
C825        C  0.98277555  0.87102252  0.65960106    -0.11700
C826        C  0.98104792  0.88862717  0.61138265     0.02240
H827        H  0.53877112  0.93577683  0.63870079     0.15220
H828        H  0.96656442  0.85314723  0.66008969     0.15220
C829        C  0.95757002  0.88232238  0.57062905     0.36870
C830        C  0.55041477  0.90821636  0.72848842     0.36770
N831        N  0.93884360  0.87717442  0.53799304    -0.43470
N832        N  0.57180713  0.91617914  0.75222057    -0.43470
C833        C  0.50865082  0.07932383  0.89869703     0.00110
C834        C  0.48542045  0.07493449  0.85960725    -0.11760
C835        C  0.48380624  0.09138579  0.80976339     0.02350
C836        C  0.50574343  0.11370041  0.79787314     0.00030
C837        C  0.53079244  0.11483830  0.83553874    -0.11700
C838        C  0.53175307  0.09915352  0.88594191     0.02240
H839        H  0.96806332  0.05877706  0.86853215     0.15220
H840        H  0.55016893  0.12803059  0.82668069     0.15220
C841        C  0.55703901  0.10354346  0.92365312     0.36870
C842        C  0.95889354  0.08444335  0.77290083     0.36770
N843        N  0.57715180  0.10731640  0.95405987    -0.43470
N844        N  0.93852641  0.07726992  0.74547647    -0.43470
C845        C  0.50799280  0.07682823  0.60236811     0.00110
C846        C  0.98256612  0.09404343  0.60779720    -0.11760
C847        C  0.97878134  0.11104585  0.65432403     0.02350
C848        C  0.50241220  0.11343105  0.69560449     0.00030
C849        C  0.52619675  0.09273207  0.69253521    -0.11700
C850        C  0.52925764  0.07483222  0.64646003     0.02240
H851        H  0.96509154  0.09357729  0.57560186     0.15220
H852        H  0.54364624  0.09215930  0.72471341     0.15220
C853        C  0.55546324  0.05646302  0.64359259     0.36870
C854        C  0.94939235  0.12318855  0.65835196     0.36770
N855        N  0.57644612  0.04172588  0.64104168    -0.43470
N856        N  0.92556199  0.13229572  0.66091120    -0.43470
C857        C  0.93810757  0.20793463  0.75760652     0.00110
C858        C  0.95384336  0.20562615  0.71071100    -0.11760
C859        C  0.97237031  0.18096021  0.70341518     0.02350
C860        C  0.97614294  0.15733323  0.74460486     0.00030
C861        C  0.95817208  0.15913629  0.79011775    -0.11700
C862        C  0.93925708  0.18390810  0.79646946     0.02240
H863        H  0.95241187  0.22394542  0.68016206     0.15220
H864        H  0.96017647  0.14280174  0.82361688     0.15220
C865        C  0.92322241  0.18542714  0.84558181     0.36870
C866        C  0.98762415  0.18148188  0.65320848     0.36770
N867        N  0.91039883  0.18662196  0.88497936    -0.43470
N868        N  0.99882449  0.18253426  0.61193136    -0.43470
C869        C  0.93950080  0.77924967  0.74092902     0.00110
C870        C  0.96734428  0.77584348  0.72051435    -0.11760
C871        C  0.98667179  0.80032542  0.71785133     0.02350
C872        C  0.98060297  0.82791524  0.74510823     0.00030
C873        C  0.95006266  0.83338393  0.74922688    -0.11700
C874        C  0.92961271  0.80907257  0.74986513     0.02240
H875        H  0.97358359  0.75418593  0.70416675     0.15220
H876        H  0.94241618  0.85643144  0.75442156     0.15220
C877        C  0.89950322  0.81530413  0.76216580     0.36870
C878        C  0.50898884  0.79776876  0.67844120     0.36770
N879        N  0.87540676  0.82058096  0.77211608    -0.43470
N880        N  0.52580703  0.79505409  0.64507191    -0.43470
C881        C  0.57653153  0.78680315  0.76467519     0.00110
C882        C  0.55747981  0.78831006  0.80710727    -0.11760
C883        C  0.53699727  0.81174926  0.80891441     0.02350
C884        C  0.53435975  0.83423472  0.76576441     0.00030
C885        C  0.55730472  0.83528801  0.72865752    -0.11700
C886        C  0.57833559  0.81181596  0.72807502     0.02240
H887        H  0.55715707  0.76971389  0.83706131     0.15220
H888        H  0.55703821  0.85180239  0.69543392     0.15220
C889        C  0.59900668  0.81211029  0.68538708     0.36870
C890        C  0.51713545  0.80939283  0.85279611     0.36770
N891        N  0.61560799  0.81246041  0.65120224    -0.43470
N892        N  0.00222115  0.80615528  0.88927097    -0.43470
C893        C  0.52996222  0.15877710  0.74680463     0.00110
C894        C  0.53050521  0.17922046  0.79108926    -0.11760
C895        C  0.54857004  0.20488254  0.79360734     0.02350
C896        C  0.56797820  0.21092739  0.75221054     0.00030
C897        C  0.57001312  0.19008531  0.71045625    -0.11700
C898        C  0.55113103  0.16463077  0.70623514     0.02240
H899        H  0.51536803  0.17578440  0.82339639     0.15220
H900        H  0.58503849  0.19505027  0.67842466     0.15220
C901        C  0.55315500  0.14823215  0.65636109     0.36870
C902        C  0.54630224  0.22500218  0.83897070     0.36770
N903        N  0.55577013  0.13656983  0.61503472    -0.43470
N904        N  0.54437268  0.24114048  0.87523797    -0.43470
loop_ 
_geom_bond_atom_site_label_1 
_geom_bond_atom_site_label_2 
_geom_bond_distance 
_geom_bond_site_symmetry_2 
_ccdc_geom_bond_type 
N1            N2   1.319       .  A
N1            C5   1.348       .  A
N1           Cu9   2.071       .  S
N2            C3   1.341       .  A
N2           Cu8   2.059       .  S
C3            C4   1.381       .  A
C3            H6   1.082       .  S
C4            C5   1.385       .  A
C4          C218   1.476       .  S
C5            H7   1.082       .  S
Cu8          N11   2.060       .  S
Cu9          N19   2.073       .  S
Cu10         N12   2.101       .  S
Cu10         N18   2.101       .  S
N11          N12   1.323       .  A
N11          C15   1.342       .  A
N12          C13   1.352       .  A
C13          C14   1.388       .  A
C13          H16   1.082       .  S
C14          C15   1.375       .  A
C14          C83   1.466       .  S
C15          H17   1.082       .  S
N18          N19   1.325       .  A
N18          C22   1.352       .  A
N19          C20   1.341       .  A
C20          C21   1.380       .  A
C20          H23   1.082       .  S
C21          C22   1.388       .  A
C21         C107   1.476       .  S
C22          H24   1.082       .  S
N25          N26   1.320       .  A
N25          C29   1.348       .  A
N25         Cu33   2.054       .  S
N26          C27   1.341       .  A
N26         Cu32   2.077       .  S
C27          C28   1.385       .  A
C27          H30   1.082       .  S
C28          C29   1.382       .  A
C28         C203   1.476       .  S
C29          H31   1.082       .  S
Cu32         N35   2.078       .  S
Cu33         N43   2.056       .  S
Cu34         N36   2.084       .  S
Cu34         N42   2.083       .  S
N35          N36   1.324       .  A
N35          C39   1.345       .  A
N36          C37   1.348       .  A
C37          C38   1.382       .  A
C37          H40   1.082       .  S
C38          C39   1.379       .  A
C38          C86   1.464       .  S
C39          H41   1.082       .  S
N42          N43   1.323       .  A
N42          C46   1.350       .  A
N43          C44   1.336       .  A
C44          C45   1.378       .  A
C44          H47   1.082       .  S
C45          C46   1.386       .  A
C45          C69   1.468       .  S
C46          H48   1.082       .  S
N49          N50   1.318       .  A
N49          C53   1.348       .  A
N49         Cu57   2.053       .  S
N50          C51   1.338       .  A
N50         Cu56   2.067       .  S
C51          C52   1.387       .  A
C51          H54   1.082       .  S
C52          C53   1.386       .  A
C52         C191   1.481       .  S
C53          H55   1.081       .  S
Cu56         N59   2.068       .  S
Cu57         N67   2.055       .  S
Cu58         N60   2.088       .  S
Cu58         N66   2.088       .  S
N59          N60   1.323       .  A
N59          C63   1.343       .  A
N60          C61   1.349       .  A
C61          C62   1.385       .  A
C61          H64   1.082       .  S
C62          C63   1.377       .  A
C62          C84   1.464       .  S
C63          H65   1.082       .  S
N66          N67   1.324       .  A
N66          C70   1.351       .  A
N67          C68   1.336       .  A
C68          C69   1.377       .  A
C68          H71   1.082       .  S
C69          C70   1.386       .  A
C70          H72   1.082       .  S
O73         Cu81   2.012       .  S
O73          C83   1.277       .  A
O74        Cu533   2.012       .  S
O74          C84   1.277       .  A
O75        Cu533   2.018       .  S
O75          C85   1.278       .  A
O76         Cu81   2.011       .  S
O76          C86   1.277       .  A
O77         Cu82   2.016       .  S
O77          C86   1.278       .  A
O78        Cu534   2.014       .  S
O78          C85   1.277       .  A
O79        Cu534   2.015       .  S
O79          C84   1.277       .  A
O80         Cu82   2.021       .  S
O80          C83   1.278       .  A
Cu81        O526   2.012   1_455  S
Cu81        O527   2.018   1_455  S
Cu81        Cu82   2.377       .  S
Cu82        O530   2.014   1_455  S
Cu82        O531   2.015   1_455  S
C85         C100   1.466       .  S
N87          N88   1.320       .  A
N87          C91   1.349       .  A
N87         Cu95   2.070       .  S
N88          C89   1.341       .  A
N88         Cu94   2.065       .  S
C89          C90   1.381       .  A
C89          H92   1.082       .  S
C90          C91   1.384       .  A
C90         C179   1.474       .  S
C91          H93   1.082       .  S
Cu94         N97   2.065       .  S
Cu95        N105   2.072       .  S
Cu96         N98   2.097       .  S
Cu96        N104   2.097       .  S
N97          N98   1.324       .  A
N97         C101   1.343       .  A
N98          C99   1.350       .  A
C99         C100   1.386       .  A
C99         H102   1.082       .  S
C100        C101   1.377       .  A
C101        H103   1.082       .  S
N104        N105   1.325       .  A
N104        C108   1.352       .  A
N105        C106   1.341       .  A
C106        C107   1.380       .  A
C106        H109   1.082       .  S
C107        C108   1.388       .  A
C108        H110   1.082       .  S
C111        C158   1.581       .  S
C111        C170   1.564       .  S
C111        C215   1.584       .  S
C111        C634   1.571   1_455  S
C112        C131   1.602       .  S
C112        C146   1.603       .  S
C112        C206   1.569       .  S
C112        C646   1.583   1_455  S
C113        C114   1.402       .  A
C113        C344   1.398       .  A
C113        C155   1.484       .  S
C114        C341   1.416       .  A
C114        H119   1.076       .  S
C115        C116   1.417       .  A
C115        C340   1.416   1_554  A
C115        C126   1.514   1_545  S
C116        C117   1.399       .  A
C116        H120   1.077       .  S
C117        C118   1.399       .  A
C117        C167   1.482       .  S
C118        C339   1.398   1_554  A
C118        H121   1.084       .  S
C122        C123   1.395       .  A
C122        C127   1.401       .  A
C122        C143   1.484       .  S
C123        C350   1.394   1_554  A
C123        H128   1.084       .  S
C124        C125   1.400       .  A
C124        C349   1.394       .  A
C124        C134   1.477       .  S
C125        C352   1.419       .  A
C125        H129   1.077       .  S
C126        C127   1.417       .  A
C126        C351   1.419   1_554  A
C127        H130   1.077       .  S
C131        C132   1.422       .  A
C131        C588   1.445   1_455  A
C132        C133   1.396       .  A
C132        H137   1.075       .  S
C133        C134   1.394       .  A
C133        C140   1.445       .  S
C134        C587   1.392   1_455  A
C135        C136   1.404       .  A
C135        C586   1.392       .  A
C135        H138   1.087       .  S
C136        C583   1.445       .  A
C136        C139   1.440       .  S
C139        N141   1.158       .  T
C140        N142   1.157       .  T
C143        C144   1.392       .  A
C143        C600   1.396   1_455  A
C144        C145   1.405       .  A
C144        H149   1.087       .  S
C145        C146   1.446       .  A
C145        C152   1.439       .  S
C146        C599   1.434   1_455  A
C147        C148   1.395       .  A
C147        C598   1.434       .  A
C147        H150   1.074       .  S
C148        C595   1.396       .  A
C148        C151   1.447       .  S
C151        N153   1.157       .  T
C152        N154   1.158       .  T
C155        C156   1.398   1_455  A
C155        C160   1.404       .  A
C156        C157   1.403       .  A
C156        H613   1.086       .  S
C157        C158   1.430   1_655  A
C157        C616   1.441       .  S
C158        C159   1.422       .  A
C159        C160   1.398       .  A
C159        H162   1.080       .  S
C160        C163   1.445       .  S
H161        C608   1.086       .  S
C163        N165   1.157       .  T
C164        C609   1.441       .  S
C164        N166   1.157       .  T
C167        C172   1.407       .  A
C167        C620   1.394   1_455  A
C168        C169   1.397       .  A
C168        C619   1.394       .  A
C168        H173   1.085       .  S
C169        C622   1.435       .  A
C169        C176   1.445       .  S
C170        C171   1.419       .  A
C170        C621   1.435   1_455  A
C171        C172   1.405       .  A
C171        H174   1.084       .  S
C172        C175   1.444       .  S
C175        N177   1.157       .  T
C176        N178   1.158       .  T
C179        C180   1.392       .  A
C179        C184   1.404       .  A
C180        C181   1.394       .  A
C180        H185   1.086       .  S
C181        C182   1.434       .  A
C181        C188   1.445       .  S
C182        C183   1.422       .  A
C182        C563   1.571       .  S
C183        C184   1.404       .  A
C183        H186   1.077       .  S
C184        C187   1.444       .  S
C187        N189   1.157       .  T
C188        N190   1.157       .  T
C191        C192   1.393       .  A
C191        C196   1.412       .  A
C192        C193   1.387       .  A
C192        H197   1.085       .  S
C193        C194   1.433       .  A
C193        C652   1.444       .  S
C194        C195   1.415       .  A
C194        C564   1.583       .  S
C195        C196   1.412       .  A
C195        H198   1.084       .  S
C196        C199   1.442       .  S
C199        N201   1.157       .  T
C200        C645   1.444   1_455  S
C200        N202   1.158       .  T
C203        C204   1.392       .  A
C203        C208   1.407       .  A
C204        C205   1.391       .  A
C204        H209   1.086       .  S
C205        C206   1.430       .  A
C205        C212   1.443       .  S
C206        C207   1.420       .  A
C207        C208   1.407       .  A
C207        H210   1.077       .  S
C208        C211   1.443       .  S
C211        N213   1.157       .  T
C212        N666   1.157       .  T
N214        C664   1.157       .  T
C215        C216   1.424       .  A
C215        C220   1.439       .  A
C216        C217   1.391       .  A
C216        H221   1.084       .  S
C217        C218   1.400       .  A
C217        C224   1.445       .  S
C218        C219   1.396       .  A
C219        C220   1.408       .  A
C219        H222   1.086       .  S
C220        C223   1.441       .  S
C223        N225   1.158       .  T
C224        N226   1.157       .  T
N227        N228   1.319       .  A
N227        C231   1.348       .  A
N227       Cu235   2.071       .  S
N228        C229   1.341       .  A
N228       Cu234   2.059       .  S
C229        C230   1.381       .  A
C229        H232   1.082       .  S
C230        C231   1.385       .  A
C230        C444   1.476       .  S
C231        H233   1.082       .  S
Cu234       N237   2.060       .  S
Cu235       N245   2.073       .  S
Cu236       N238   2.101       .  S
Cu236       N244   2.101       .  S
N237        N238   1.323       .  A
N237        C241   1.342       .  A
N238        C239   1.352       .  A
C239        C240   1.388       .  A
C239        H242   1.082       .  S
C240        C241   1.375       .  A
C240        C309   1.466       .  S
C241        H243   1.082       .  S
N244        N245   1.325       .  A
N244        C248   1.352       .  A
N245        C246   1.341       .  A
C246        C247   1.380       .  A
C246        H249   1.082       .  S
C247        C248   1.388       .  A
C247        C333   1.476       .  S
C248        H250   1.082       .  S
N251        N252   1.320       .  A
N251        C255   1.348       .  A
N251       Cu259   2.054       .  S
N252        C253   1.341       .  A
N252       Cu258   2.077       .  S
C253        C254   1.385       .  A
C253        H256   1.082       .  S
C254        C255   1.382       .  A
C254        C429   1.476       .  S
C255        H257   1.082       .  S
Cu258       N261   2.078       .  S
Cu259       N269   2.056       .  S
Cu260       N262   2.084       .  S
Cu260       N268   2.083       .  S
N261        N262   1.324       .  A
N261        C265   1.345       .  A
N262        C263   1.348       .  A
C263        C264   1.382       .  A
C263        H266   1.082       .  S
C264        C265   1.379       .  A
C264        C312   1.464       .  S
C265        H267   1.082       .  S
N268        N269   1.323       .  A
N268        C272   1.350       .  A
N269        C270   1.336       .  A
C270        C271   1.378       .  A
C270        H273   1.082       .  S
C271        C272   1.386       .  A
C271        C295   1.468       .  S
C272        H274   1.082       .  S
N275        N276   1.318       .  A
N275        C279   1.348       .  A
N275       Cu283   2.053       .  S
N276        C277   1.338       .  A
N276       Cu282   2.067       .  S
C277        C278   1.387       .  A
C277        H280   1.082       .  S
C278        C279   1.386       .  A
C278        C417   1.481       .  S
C279        H281   1.081       .  S
Cu282       N285   2.068       .  S
Cu283       N293   2.055       .  S
Cu284       N286   2.088       .  S
Cu284       N292   2.088       .  S
N285        N286   1.323       .  A
N285        C289   1.343       .  A
N286        C287   1.349       .  A
C287        C288   1.385       .  A
C287        H290   1.082       .  S
C288        C289   1.377       .  A
C288        C310   1.464       .  S
C289        H291   1.082       .  S
N292        N293   1.324       .  A
N292        C296   1.351       .  A
N293        C294   1.336       .  A
C294        C295   1.377       .  A
C294        H297   1.082       .  S
C295        C296   1.386       .  A
C296        H298   1.082       .  S
O299       Cu307   2.012       .  S
O299        C309   1.277       .  A
O300       Cu759   2.012       .  S
O300        C310   1.277       .  A
O301       Cu759   2.018       .  S
O301        C311   1.278       .  A
O302       Cu307   2.011       .  S
O302        C312   1.277       .  A
O303       Cu308   2.016       .  S
O303        C312   1.278       .  A
O304       Cu760   2.014       .  S
O304        C311   1.277       .  A
O305       Cu760   2.015       .  S
O305        C310   1.277       .  A
O306       Cu308   2.021       .  S
O306        C309   1.278       .  A
Cu307       O752   2.012   1_455  S
Cu307       O753   2.018   1_455  S
Cu307      Cu308   2.377       .  S
Cu308       O756   2.014   1_455  S
Cu308       O757   2.015   1_455  S
C311        C326   1.466       .  S
N313        N314   1.320       .  A
N313        C317   1.349       .  A
N313       Cu321   2.070       .  S
N314        C315   1.341       .  A
N314       Cu320   2.065       .  S
C315        C316   1.381       .  A
C315        H318   1.082       .  S
C316        C317   1.384       .  A
C316        C405   1.474       .  S
C317        H319   1.082       .  S
Cu320       N323   2.065       .  S
Cu321       N331   2.072       .  S
Cu322       N324   2.097       .  S
Cu322       N330   2.097       .  S
N323        N324   1.324       .  A
N323        C327   1.343       .  A
N324        C325   1.350       .  A
C325        C326   1.386       .  A
C325        H328   1.082       .  S
C326        C327   1.377       .  A
C327        H329   1.082       .  S
N330        N331   1.325       .  A
N330        C334   1.352       .  A
N331        C332   1.341       .  A
C332        C333   1.380       .  A
C332        H335   1.082       .  S
C333        C334   1.388       .  A
C334        H336   1.082       .  S
C337        C384   1.581       .  S
C337        C396   1.564       .  S
C337        C860   1.571   1_455  S
C337        C441   1.584       .  S
C338        C357   1.602       .  S
C338        C372   1.603       .  S
C338        C872   1.583   1_455  S
C338        C432   1.569       .  S
C339        C340   1.402       .  A
C339        C381   1.484       .  S
C340        H345   1.076       .  S
C341        C342   1.417       .  A
C341        C352   1.514   1_545  S
C342        C343   1.399       .  A
C342        H346   1.077       .  S
C343        C344   1.399       .  A
C343        C393   1.482       .  S
C344        H347   1.084       .  S
C348        C349   1.395       .  A
C348        C353   1.401       .  A
C348        C369   1.484       .  S
C349        H354   1.084       .  S
C350        C351   1.400       .  A
C350        C360   1.477       .  S
C351        H355   1.077       .  S
C352        C353   1.417       .  A
C353        H356   1.077       .  S
C357        C358   1.422       .  A
C357        C814   1.445   1_455  A
C358        C359   1.396       .  A
C358        H363   1.075       .  S
C359        C360   1.394       .  A
C359        C366   1.445       .  S
C360        C813   1.392   1_455  A
C361        C812   1.392       .  A
C361        C362   1.404       .  A
C361        H364   1.087       .  S
C362        C809   1.445       .  A
C362        C365   1.440       .  S
C365        N367   1.158       .  T
C366        N368   1.157       .  T
C369        C370   1.392       .  A
C369        C826   1.396   1_455  A
C370        C371   1.405       .  A
C370        H375   1.087       .  S
C371        C372   1.446       .  A
C371        C378   1.439       .  S
C372        C825   1.434   1_455  A
C373        C824   1.434       .  A
C373        C374   1.395       .  A
C373        H376   1.074       .  S
C374        C821   1.396       .  A
C374        C377   1.447       .  S
C377        N379   1.157       .  T
C378        N380   1.158       .  T
C381        C382   1.398   1_455  A
C381        C386   1.404       .  A
C382        C383   1.403       .  A
C382        H839   1.086       .  S
C383        C384   1.430   1_655  A
C383        C842   1.441       .  S
C384        C385   1.422       .  A
C385        C386   1.398       .  A
C385        H388   1.080       .  S
C386        C389   1.445       .  S
H387        C834   1.086       .  S
C389        N391   1.157       .  T
C390        C835   1.441       .  S
C390        N392   1.157       .  T
C393        C846   1.394   1_455  A
C393        C398   1.407       .  A
C394        C845   1.394       .  A
C394        C395   1.397       .  A
C394        H399   1.085       .  S
C395        C848   1.435       .  A
C395        C402   1.445       .  S
C396        C847   1.435   1_455  A
C396        C397   1.419       .  A
C397        C398   1.405       .  A
C397        H400   1.084       .  S
C398        C401   1.444       .  S
C401        N403   1.157       .  T
C402        N404   1.158       .  T
C405        C406   1.392       .  A
C405        C410   1.404       .  A
C406        C407   1.394       .  A
C406        H411   1.086       .  S
C407        C408   1.434       .  A
C407        C414   1.445       .  S
C408        C409   1.422       .  A
C408        C789   1.571       .  S
C409        C410   1.404       .  A
C409        H412   1.077       .  S
C410        C413   1.444       .  S
C413        N415   1.157       .  T
C414        N416   1.157       .  T
C417        C418   1.393       .  A
C417        C422   1.412       .  A
C418        C419   1.387       .  A
C418        H423   1.085       .  S
C419        C420   1.433       .  A
C419        C878   1.444       .  S
C420        C421   1.415       .  A
C420        C790   1.583       .  S
C421        C422   1.412       .  A
C421        H424   1.084       .  S
C422        C425   1.442       .  S
C425        N427   1.157       .  T
C426        C871   1.444   1_455  S
C426        N428   1.158       .  T
C429        C430   1.392       .  A
C429        C434   1.407       .  A
C430        C431   1.391       .  A
C430        H435   1.086       .  S
C431        C432   1.430       .  A
C431        C438   1.443       .  S
C432        C433   1.420       .  A
C433        C434   1.407       .  A
C433        H436   1.077       .  S
C434        C437   1.443       .  S
C437        N439   1.157       .  T
C438        N892   1.157       .  T
N440        C890   1.157       .  T
C441        C442   1.424       .  A
C441        C446   1.439       .  A
C442        C443   1.391       .  A
C442        H447   1.084       .  S
C443        C444   1.400       .  A
C443        C450   1.445       .  S
C444        C445   1.396       .  A
C445        C446   1.408       .  A
C445        H448   1.086       .  S
C446        C449   1.441       .  S
C449        N451   1.158       .  T
C450        N452   1.157       .  T
N453        N454   1.319       .  A
N453        C457   1.348       .  A
N453       Cu461   2.071       .  S
N454        C455   1.341       .  A
N454       Cu460   2.059       .  S
C455        C456   1.381       .  A
C455        H458   1.082       .  S
C456        C457   1.385       .  A
C456        C670   1.476       .  S
C457        H459   1.082       .  S
Cu460       N463   2.060       .  S
Cu461       N471   2.073       .  S
Cu462       N464   2.101       .  S
Cu462       N470   2.101       .  S
N463        N464   1.323       .  A
N463        C467   1.342       .  A
N464        C465   1.352       .  A
C465        C466   1.388       .  A
C465        H468   1.082       .  S
C466        C467   1.375       .  A
C466        C535   1.466       .  S
C467        H469   1.082       .  S
N470        N471   1.325       .  A
N470        C474   1.352       .  A
N471        C472   1.341       .  A
C472        C473   1.380       .  A
C472        H475   1.082       .  S
C473        C474   1.388       .  A
C473        C559   1.476       .  S
C474        H476   1.082       .  S
N477        N478   1.320       .  A
N477        C481   1.348       .  A
N477       Cu485   2.054       .  S
N478        C479   1.341       .  A
N478       Cu484   2.077       .  S
C479        C480   1.385       .  A
C479        H482   1.082       .  S
C480        C481   1.382       .  A
C480        C655   1.476       .  S
C481        H483   1.082       .  S
Cu484       N487   2.078       .  S
Cu485       N495   2.056       .  S
Cu486       N488   2.084       .  S
Cu486       N494   2.083       .  S
N487        N488   1.324       .  A
N487        C491   1.345       .  A
N488        C489   1.348       .  A
C489        C490   1.382       .  A
C489        H492   1.082       .  S
C490        C491   1.379       .  A
C490        C538   1.464       .  S
C491        H493   1.082       .  S
N494        N495   1.323       .  A
N494        C498   1.350       .  A
N495        C496   1.336       .  A
C496        C497   1.378       .  A
C496        H499   1.082       .  S
C497        C498   1.386       .  A
C497        C521   1.468       .  S
C498        H500   1.082       .  S
N501        N502   1.318       .  A
N501        C505   1.348       .  A
N501       Cu509   2.053       .  S
N502        C503   1.338       .  A
N502       Cu508   2.067       .  S
C503        C504   1.387       .  A
C503        H506   1.082       .  S
C504        C505   1.386       .  A
C504        C643   1.481       .  S
C505        H507   1.081       .  S
Cu508       N511   2.068       .  S
Cu509       N519   2.055       .  S
Cu510       N512   2.088       .  S
Cu510       N518   2.088       .  S
N511        N512   1.323       .  A
N511        C515   1.343       .  A
N512        C513   1.349       .  A
C513        C514   1.385       .  A
C513        H516   1.082       .  S
C514        C515   1.377       .  A
C514        C536   1.464       .  S
C515        H517   1.082       .  S
N518        N519   1.324       .  A
N518        C522   1.351       .  A
N519        C520   1.336       .  A
C520        C521   1.377       .  A
C520        H523   1.082       .  S
C521        C522   1.386       .  A
C522        H524   1.082       .  S
O525       Cu533   2.012       .  S
O525        C535   1.277       .  A
O526        C536   1.277       .  A
O527        C537   1.278       .  A
O528       Cu533   2.011       .  S
O528        C538   1.277       .  A
O529       Cu534   2.016       .  S
O529        C538   1.278       .  A
O530        C537   1.277       .  A
O531        C536   1.277       .  A
O532       Cu534   2.021       .  S
O532        C535   1.278       .  A
Cu533      Cu534   2.377       .  S
C537        C552   1.466       .  S
N539        N540   1.320       .  A
N539        C543   1.349       .  A
N539       Cu547   2.070       .  S
N540        C541   1.341       .  A
N540       Cu546   2.065       .  S
C541        C542   1.381       .  A
C541        H544   1.082       .  S
C542        C543   1.384       .  A
C542        C631   1.474       .  S
C543        H545   1.082       .  S
Cu546       N549   2.065       .  S
Cu547       N557   2.072       .  S
Cu548       N550   2.097       .  S
Cu548       N556   2.097       .  S
N549        N550   1.324       .  A
N549        C553   1.343       .  A
N550        C551   1.350       .  A
C551        C552   1.386       .  A
C551        H554   1.082       .  S
C552        C553   1.377       .  A
C553        H555   1.082       .  S
N556        N557   1.325       .  A
N556        C560   1.352       .  A
N557        C558   1.341       .  A
C558        C559   1.380       .  A
C558        H561   1.082       .  S
C559        C560   1.388       .  A
C560        H562   1.082       .  S
C563        C610   1.581       .  S
C563        C622   1.564       .  S
C563        C667   1.584       .  S
C564        C583   1.602       .  S
C564        C598   1.603       .  S
C564        C658   1.569       .  S
C565        C566   1.402       .  A
C565        C796   1.398       .  A
C565        C607   1.484       .  S
C566        C793   1.416       .  A
C566        H571   1.076       .  S
C567        C792   1.416   1_554  A
C567        C568   1.417       .  A
C567        C578   1.514   1_545  S
C568        C569   1.399       .  A
C568        H572   1.077       .  S
C569        C570   1.399       .  A
C569        C619   1.482       .  S
C570        C791   1.398   1_554  A
C570        H573   1.084       .  S
C574        C575   1.395       .  A
C574        C579   1.401       .  A
C574        C595   1.484       .  S
C575        C802   1.394   1_554  A
C575        H580   1.084       .  S
C576        C801   1.394       .  A
C576        C577   1.400       .  A
C576        C586   1.477       .  S
C577        C804   1.419       .  A
C577        H581   1.077       .  S
C578        C803   1.419   1_554  A
C578        C579   1.417       .  A
C579        H582   1.077       .  S
C583        C584   1.422       .  A
C584        C585   1.396       .  A
C584        H589   1.075       .  S
C585        C586   1.394       .  A
C585        C592   1.445       .  S
C587        C588   1.404       .  A
C587        H590   1.087       .  S
C588        C591   1.440       .  S
C591        N593   1.158       .  T
C592        N594   1.157       .  T
C595        C596   1.392       .  A
C596        C597   1.405       .  A
C596        H601   1.087       .  S
C597        C598   1.446       .  A
C597        C604   1.439       .  S
C599        C600   1.395       .  A
C599        H602   1.074       .  S
C600        C603   1.447       .  S
C603        N605   1.157       .  T
C604        N606   1.158       .  T
C607        C608   1.398       .  A
C607        C612   1.404       .  A
C608        C609   1.403       .  A
C609        C610   1.430       .  A
C610        C611   1.422       .  A
C611        C612   1.398       .  A
C611        H614   1.080       .  S
C612        C615   1.445       .  S
C615        N617   1.157       .  T
C616        N618   1.157       .  T
C619        C624   1.407       .  A
C620        C621   1.397       .  A
C620        H625   1.085       .  S
C621        C628   1.445       .  S
C622        C623   1.419       .  A
C623        C624   1.405       .  A
C623        H626   1.084       .  S
C624        C627   1.444       .  S
C627        N629   1.157       .  T
C628        N630   1.158       .  T
C631        C632   1.392       .  A
C631        C636   1.404       .  A
C632        C633   1.394       .  A
C632        H637   1.086       .  S
C633        C634   1.434       .  A
C633        C640   1.445       .  S
C634        C635   1.422       .  A
C635        C636   1.404       .  A
C635        H638   1.077       .  S
C636        C639   1.444       .  S
C639        N641   1.157       .  T
C640        N642   1.157       .  T
C643        C644   1.393       .  A
C643        C648   1.412       .  A
C644        C645   1.387       .  A
C644        H649   1.085       .  S
C645        C646   1.433       .  A
C646        C647   1.415       .  A
C647        C648   1.412       .  A
C647        H650   1.084       .  S
C648        C651   1.442       .  S
C651        N653   1.157       .  T
C652        N654   1.158       .  T
C655        C656   1.392       .  A
C655        C660   1.407       .  A
C656        C657   1.391       .  A
C656        H661   1.086       .  S
C657        C658   1.430       .  A
C657        C664   1.443       .  S
C658        C659   1.420       .  A
C659        C660   1.407       .  A
C659        H662   1.077       .  S
C660        C663   1.443       .  S
C663        N665   1.157       .  T
C667        C668   1.424       .  A
C667        C672   1.439       .  A
C668        C669   1.391       .  A
C668        H673   1.084       .  S
C669        C670   1.400       .  A
C669        C676   1.445       .  S
C670        C671   1.396       .  A
C671        C672   1.408       .  A
C671        H674   1.086       .  S
C672        C675   1.441       .  S
C675        N677   1.158       .  T
C676        N678   1.157       .  T
N679        N680   1.319       .  A
N679        C683   1.348       .  A
N679       Cu687   2.071       .  S
N680        C681   1.341       .  A
N680       Cu686   2.059       .  S
C681        C682   1.381       .  A
C681        H684   1.082       .  S
C682        C683   1.385       .  A
C682        C896   1.476       .  S
C683        H685   1.082       .  S
Cu686       N689   2.060       .  S
Cu687       N697   2.073       .  S
Cu688       N690   2.101       .  S
Cu688       N696   2.101       .  S
N689        N690   1.323       .  A
N689        C693   1.342       .  A
N690        C691   1.352       .  A
C691        C692   1.388       .  A
C691        H694   1.082       .  S
C692        C693   1.375       .  A
C692        C761   1.466       .  S
C693        H695   1.082       .  S
N696        N697   1.325       .  A
N696        C700   1.352       .  A
N697        C698   1.341       .  A
C698        C699   1.380       .  A
C698        H701   1.082       .  S
C699        C700   1.388       .  A
C699        C785   1.476       .  S
C700        H702   1.082       .  S
N703        N704   1.320       .  A
N703        C707   1.348       .  A
N703       Cu711   2.054       .  S
N704        C705   1.341       .  A
N704       Cu710   2.077       .  S
C705        C706   1.385       .  A
C705        H708   1.082       .  S
C706        C707   1.382       .  A
C706        C881   1.476       .  S
C707        H709   1.082       .  S
Cu710       N713   2.078       .  S
Cu711       N721   2.056       .  S
Cu712       N714   2.084       .  S
Cu712       N720   2.083       .  S
N713        N714   1.324       .  A
N713        C717   1.345       .  A
N714        C715   1.348       .  A
C715        C716   1.382       .  A
C715        H718   1.082       .  S
C716        C717   1.379       .  A
C716        C764   1.464       .  S
C717        H719   1.082       .  S
N720        N721   1.323       .  A
N720        C724   1.350       .  A
N721        C722   1.336       .  A
C722        C723   1.378       .  A
C722        H725   1.082       .  S
C723        C724   1.386       .  A
C723        C747   1.468       .  S
C724        H726   1.082       .  S
N727        N728   1.318       .  A
N727        C731   1.348       .  A
N727       Cu735   2.053       .  S
N728        C729   1.338       .  A
N728       Cu734   2.067       .  S
C729        C730   1.387       .  A
C729        H732   1.082       .  S
C730        C731   1.386       .  A
C730        C869   1.481       .  S
C731        H733   1.081       .  S
Cu734       N737   2.068       .  S
Cu735       N745   2.055       .  S
Cu736       N738   2.088       .  S
Cu736       N744   2.088       .  S
N737        N738   1.323       .  A
N737        C741   1.343       .  A
N738        C739   1.349       .  A
C739        C740   1.385       .  A
C739        H742   1.082       .  S
C740        C741   1.377       .  A
C740        C762   1.464       .  S
C741        H743   1.082       .  S
N744        N745   1.324       .  A
N744        C748   1.351       .  A
N745        C746   1.336       .  A
C746        C747   1.377       .  A
C746        H749   1.082       .  S
C747        C748   1.386       .  A
C748        H750   1.082       .  S
O751       Cu759   2.012       .  S
O751        C761   1.277       .  A
O752        C762   1.277       .  A
O753        C763   1.278       .  A
O754       Cu759   2.011       .  S
O754        C764   1.277       .  A
O755       Cu760   2.016       .  S
O755        C764   1.278       .  A
O756        C763   1.277       .  A
O757        C762   1.277       .  A
O758       Cu760   2.021       .  S
O758        C761   1.278       .  A
Cu759      Cu760   2.377       .  S
C763        C778   1.466       .  S
N765        N766   1.320       .  A
N765        C769   1.349       .  A
N765       Cu773   2.070       .  S
N766        C767   1.341       .  A
N766       Cu772   2.065       .  S
C767        C768   1.381       .  A
C767        H770   1.082       .  S
C768        C769   1.384       .  A
C768        C857   1.474       .  S
C769        H771   1.082       .  S
Cu772       N775   2.065       .  S
Cu773       N783   2.072       .  S
Cu774       N776   2.097       .  S
Cu774       N782   2.097       .  S
N775        N776   1.324       .  A
N775        C779   1.343       .  A
N776        C777   1.350       .  A
C777        C778   1.386       .  A
C777        H780   1.082       .  S
C778        C779   1.377       .  A
C779        H781   1.082       .  S
N782        N783   1.325       .  A
N782        C786   1.352       .  A
N783        C784   1.341       .  A
C784        C785   1.380       .  A
C784        H787   1.082       .  S
C785        C786   1.388       .  A
C786        H788   1.082       .  S
C789        C836   1.581       .  S
C789        C848   1.564       .  S
C789        C893   1.584       .  S
C790        C809   1.602       .  S
C790        C824   1.603       .  S
C790        C884   1.569       .  S
C791        C792   1.402       .  A
C791        C833   1.484       .  S
C792        H797   1.076       .  S
C793        C794   1.417       .  A
C793        C804   1.514   1_545  S
C794        C795   1.399       .  A
C794        H798   1.077       .  S
C795        C796   1.399       .  A
C795        C845   1.482       .  S
C796        H799   1.084       .  S
C800        C801   1.395       .  A
C800        C805   1.401       .  A
C800        C821   1.484       .  S
C801        H806   1.084       .  S
C802        C803   1.400       .  A
C802        C812   1.477       .  S
C803        H807   1.077       .  S
C804        C805   1.417       .  A
C805        H808   1.077       .  S
C809        C810   1.422       .  A
C810        C811   1.396       .  A
C810        H815   1.075       .  S
C811        C812   1.394       .  A
C811        C818   1.445       .  S
C813        C814   1.404       .  A
C813        H816   1.087       .  S
C814        C817   1.440       .  S
C817        N819   1.158       .  T
C818        N820   1.157       .  T
C821        C822   1.392       .  A
C822        C823   1.405       .  A
C822        H827   1.087       .  S
C823        C824   1.446       .  A
C823        C830   1.439       .  S
C825        C826   1.395       .  A
C825        H828   1.074       .  S
C826        C829   1.447       .  S
C829        N831   1.157       .  T
C830        N832   1.158       .  T
C833        C834   1.398       .  A
C833        C838   1.404       .  A
C834        C835   1.403       .  A
C835        C836   1.430       .  A
C836        C837   1.422       .  A
C837        C838   1.398       .  A
C837        H840   1.080       .  S
C838        C841   1.445       .  S
C841        N843   1.157       .  T
C842        N844   1.157       .  T
C845        C850   1.407       .  A
C846        C847   1.397       .  A
C846        H851   1.085       .  S
C847        C854   1.445       .  S
C848        C849   1.419       .  A
C849        C850   1.405       .  A
C849        H852   1.084       .  S
C850        C853   1.444       .  S
C853        N855   1.157       .  T
C854        N856   1.158       .  T
C857        C858   1.392       .  A
C857        C862   1.404       .  A
C858        C859   1.394       .  A
C858        H863   1.086       .  S
C859        C860   1.434       .  A
C859        C866   1.445       .  S
C860        C861   1.422       .  A
C861        C862   1.404       .  A
C861        H864   1.077       .  S
C862        C865   1.444       .  S
C865        N867   1.157       .  T
C866        N868   1.157       .  T
C869        C870   1.393       .  A
C869        C874   1.412       .  A
C870        C871   1.387       .  A
C870        H875   1.085       .  S
C871        C872   1.433       .  A
C872        C873   1.415       .  A
C873        C874   1.412       .  A
C873        H876   1.084       .  S
C874        C877   1.442       .  S
C877        N879   1.157       .  T
C878        N880   1.158       .  T
C881        C882   1.392       .  A
C881        C886   1.407       .  A
C882        C883   1.391       .  A
C882        H887   1.086       .  S
C883        C884   1.430       .  A
C883        C890   1.443       .  S
C884        C885   1.420       .  A
C885        C886   1.407       .  A
C885        H888   1.077       .  S
C886        C889   1.443       .  S
C889        N891   1.157       .  T
C893        C894   1.424       .  A
C893        C898   1.439       .  A
C894        C895   1.391       .  A
C894        H899   1.084       .  S
C895        C896   1.400       .  A
C895        C902   1.445       .  S
C896        C897   1.396       .  A
C897        C898   1.408       .  A
C897        H900   1.086       .  S
C898        C901   1.441       .  S
C901        N903   1.158       .  T
C902        N904   1.157       .  T
