geometry optimzed in LAMMPS
_audit_creation_date              2020-11-30 
_audit_creation_method            'lammps2cif' 
_symmetry_space_group_name_H-M    'P1' 
_symmetry_Int_Tables_number       1 
_symmetry_cell_setting            triclinic 
loop_ 
_symmetry_equiv_pos_as_xyz 
  x,y,z 
_cell_length_a                    19.25307549 
_cell_length_b                    67.11596324117129 
_cell_length_c                    27.793573061529315 
_cell_angle_alpha                 90.27840625985937 
_cell_angle_beta                  90.18551251481114 
_cell_angle_gamma                 89.91726594205849 
loop_ 
_atom_site_label 
_atom_site_type_symbol 
_atom_site_fract_x 
_atom_site_fract_y 
_atom_site_fract_z 
_atom_site_charge 
C1          C  0.30318612  0.31959646  0.50680256     0.80900
N2          N  0.24729647  0.30904789  0.52203187    -0.77500
C3          C  0.18169128  0.31588594  0.51286821     0.83300
N4          N  0.17253425  0.33348910  0.48947607    -0.77400
C5          C  0.22854636  0.34427170  0.47530881     0.83400
N6          N  0.29299028  0.33709030  0.48391850    -0.79100
C7          C  0.30527164  0.71318157  0.49106368     0.80900
N8          N  0.24971130  0.72516383  0.50030862    -0.77500
C9          C  0.18382264  0.71781492  0.49599033     0.83300
N10         N  0.17378793  0.69854152  0.48280656    -0.77400
C11         C  0.22901691  0.68651010  0.47398328     0.83400
N12         N  0.29392978  0.69394750  0.47818439    -0.79100
C13         C  0.81057511  0.72127416  0.47096816     0.80900
N14         N  0.81577309  0.70349251  0.44825189    -0.77500
C15         C  0.87762778  0.69405338  0.44364369     0.83300
N16         N  0.93602420  0.70292762  0.46123341    -0.77400
C17         C  0.93155737  0.72083182  0.48441870     0.83400
N18         N  0.86842428  0.72983249  0.48990637    -0.79100
O19         O  0.95236871  0.53961619  0.45131425    -0.72300
O20         O  0.08564704  0.49389608  0.45997577    -0.73300
O21         O  0.09580252  0.53636855  0.46011972    -0.61900
O22         O  0.94180612  0.49675410  0.45073657    -0.70300
O23         O  0.95090442  0.49603584  0.37132919    -0.69900
O24         O  0.10359410  0.53628123  0.38047968    -0.61100
O25         O  0.09491694  0.49368768  0.38058346    -0.73600
O26         O  0.96011375  0.53926733  0.37190897    -0.72400
Cu27       Cu  0.01833275  0.51664508  0.45820716     1.04600
Cu28       Cu  0.02754001  0.51628935  0.37332448     1.04300
C29         C  0.93937512  0.54767181  0.41071834     0.93900
C30         C  0.10938969  0.48604213  0.42146716     0.93000
C31         C  0.12079339  0.54351435  0.42139714     0.85200
C32         C  0.92606057  0.48890558  0.41013185     0.91400
C33         C  0.81141115  0.32340704  0.52435798     0.80900
N34         N  0.82048965  0.34137164  0.50357021    -0.77500
C35         C  0.88444306  0.34815562  0.49243428     0.83300
N36         N  0.94113279  0.33670372  0.50208309    -0.77400
C37         C  0.93278271  0.31852384  0.52295657     0.83400
N38         N  0.86775839  0.31192063  0.53414596    -0.79100
C39         C  0.05684511  0.27957995  0.57531373     0.87100
C40         C  0.99577300  0.29423539  0.57373490    -0.53100
C41         C  0.99344359  0.30582772  0.53370539     0.10000
C42         C  0.05385036  0.30208750  0.49862160     0.21000
C43         C  0.05227193  0.26788162  0.52773739    -0.53800
C44         C  0.05002973  0.27961401  0.48775986     0.10100
C45         C  0.12239050  0.29254726  0.56846014    -0.53400
C46         C  0.12080221  0.30426129  0.52855994     0.10700
H47         H  0.95615339  0.29491503  0.60146535     0.15200
H48         H  0.05224262  0.31147942  0.46582887     0.01000
H49         H  0.05330529  0.25172082  0.52562804     0.15500
H50         H  0.16892529  0.29187375  0.59082461     0.15300
C51         C  0.05833612  0.75768093  0.54271681     0.87100
C52         C  0.12158661  0.74374259  0.54286422    -0.53100
C53         C  0.12326594  0.73063368  0.50539287     0.10000
C54         C  0.06114286  0.73245370  0.47058896     0.21000
C55         C  0.06170709  0.76759879  0.49259862    -0.53800
C56         C  0.06293330  0.75431232  0.45537350     0.10100
C57         C  0.99406177  0.74416489  0.53913953    -0.53400
C58         C  0.99499395  0.73112172  0.50128828     0.10700
H59         H  0.16319983  0.74476614  0.56922844     0.15200
H60         H  0.06264281  0.72190433  0.43966199     0.01000
H61         H  0.06357555  0.78330164  0.48537024     0.15500
H62         H  0.94916937  0.74592306  0.56235049     0.15300
N63         N  0.98710603  0.17450209  0.93305027    -0.26700
N64         N  0.99686046  0.19162585  0.95543638    -0.34500
C65         C  0.00690432  0.20595783  0.92297063     0.01700
C66         C  0.00319852  0.19757808  0.87743832     0.07700
C67         C  0.99039008  0.17748104  0.88524410    -0.05400
H68         H  0.01702427  0.22136382  0.93215339     0.08400
H69         H  0.98361430  0.16584741  0.85868055     0.09600
Cu70       Cu  0.99746239  0.19488412  0.02882345     0.44200
Cu71       Cu  0.97220507  0.14847882  0.97081154     0.42000
Cu72       Cu  0.99088719  0.15106647  0.10313817     0.43900
N73         N  0.00517193  0.19573121  0.10241357    -0.34000
N74         N  0.00486994  0.17978707  0.13013087    -0.28300
C75         C  0.01479870  0.18561995  0.17604679    -0.04400
C76         C  0.02045108  0.20619503  0.17688641     0.07800
C77         C  0.01420810  0.21208401  0.12964584     0.01600
H78         H  0.01735164  0.17567231  0.20651861     0.09300
H79         H  0.01780042  0.22708525  0.11582629     0.08300
N80         N  0.97666160  0.12487476  0.06381571    -0.35500
N81         N  0.96988240  0.12430910  0.01642804    -0.27700
C82         C  0.96621858  0.10529171  0.00182466    -0.02900
C83         C  0.97058603  0.09314843  0.04165257     0.05700
C84         C  0.97713345  0.10604699  0.08050389     0.03800
H85         H  0.96317766  0.10063217  0.96455104     0.08900
H86         H  0.98516599  0.10206983  0.11777257     0.07700
N87         N  0.07139245  0.86347978  0.90504380    -0.26700
N88         N  0.06650349  0.84593189  0.92606110    -0.34500
C89         C  0.06709591  0.83162067  0.89225669     0.01700
C90         C  0.07333717  0.84056280  0.84781003     0.07700
C91         C  0.07585169  0.86080722  0.85714223    -0.05400
H92         H  0.06230022  0.81585312  0.89946410     0.08400
H93         H  0.07768051  0.87272644  0.83113530     0.09600
Cu94       Cu  0.05753131  0.84204509  0.99937484     0.44200
Cu95       Cu  0.06553244  0.88996132  0.94279783     0.42000
Cu96       Cu  0.04142539  0.88579981  0.07314741     0.43900
N97         N  0.05770595  0.84133989  0.07358185    -0.34000
N98         N  0.05228493  0.85735410  0.10107945    -0.28300
C99         C  0.05563849  0.85182585  0.14750913    -0.04400
C100        C  0.06393584  0.83128118  0.14925183     0.07800
C101        C  0.06460180  0.82521766  0.10155671     0.01600
H102        H  0.05159360  0.86207023  0.17745232     0.09300
H103        H  0.07060578  0.81018054  0.08798780     0.08300
N104        N  0.03632761  0.91227757  0.03504866    -0.35500
N105        N  0.04582005  0.91373859  0.98812467    -0.27700
C106        C  0.04028690  0.93292829  0.97520243    -0.02900
C107        C  0.02613512  0.94419092  0.01589335     0.05700
C108        C  0.02437505  0.93054546  0.05317367     0.03800
H109        H  0.04735320  0.93814610  0.93886039     0.08900
H110        H  0.01524713  0.93362907  0.09086611     0.07700
C111        C  0.96277017  0.03799170  0.07161587    -0.13700
C112        C  0.00425573  0.02990333  0.03488705     0.16700
C113        C  0.03432979  0.04276023  0.00085879     0.02900
C114        C  0.02261798  0.06323980  0.00402218    -0.12200
C115        C  0.98112647  0.07136086  0.04061472    -0.03300
C116        C  0.95103717  0.05856899  0.07475332     0.02200
C117        C  0.01119802  0.00799155  0.03029375     0.09000
N118        N  0.07736848  0.03527959  0.96302577     0.65400
H119        H  0.04687973  0.07287486  0.97783484     0.18300
N120        N  0.90441305  0.06602051  0.11046381     0.75900
H121        H  0.93717889  0.02822721  0.09687625     0.09800
C122        C  0.03540417  0.99617821  0.06861345     0.03500
C123        C  0.03932742  0.97548883  0.06315208    -0.05200
C124        C  0.01925176  0.96614021  0.01995802    -0.23600
C125        C  0.99395952  0.97801252  0.98181739     0.12800
C126        C  0.99009090  0.99869826  0.98740781    -0.12700
N127        N  0.05741636  0.00497709  0.11301717     0.64400
H128        H  0.05956532  0.96677271  0.09273687     0.12300
N129        N  0.96841358  0.96937017  0.93815000     0.61100
H130        H  0.96863273  0.00752475  0.95840798     0.06900
O131        O  0.92321604  0.06644601  0.15398370    -0.40400
O132        O  0.84092733  0.06804338  0.10013787    -0.39600
O133        O  0.05432915  0.03493726  0.92046649    -0.39600
O134        O  0.14172609  0.03329973  0.97025470    -0.37300
O135        O  0.00207413  0.97170516  0.89970024    -0.38200
O136        O  0.90608979  0.96364026  0.93595010    -0.34300
O137        O  0.01981365  0.00325051  0.14986341    -0.35700
O138        O  0.11952348  0.01064677  0.11772622    -0.40000
C139        C  0.05551138  0.77550889  0.67444417    -0.13700
C140        C  0.05489021  0.79629320  0.66986815     0.16700
C141        C  0.05615791  0.80462804  0.62352361     0.02900
C142        C  0.05725607  0.79224595  0.58295717    -0.12200
C143        C  0.05667021  0.77129103  0.58710428    -0.03300
C144        C  0.05505792  0.76304052  0.63402118     0.02200
C145        C  0.05566344  0.80885668  0.71397612     0.09000
N146        N  0.05491369  0.82571971  0.61663479     0.65400
H147        H  0.05770342  0.79954858  0.54906010     0.18300
N148        N  0.05242888  0.74197783  0.64157121     0.75900
H149        H  0.05690188  0.76881476  0.70974997     0.09800
C150        C  0.00904873  0.80531647  0.75209591     0.03500
C151        C  0.01608372  0.81584200  0.79523532    -0.05200
C152        C  0.06728556  0.83047747  0.80085435    -0.23600
C153        C  0.11182025  0.83476466  0.76217387     0.12800
C154        C  0.10674493  0.82363846  0.71957864    -0.12700
N155        N  0.95333279  0.79138266  0.74728087     0.64400
H156        H  0.98037410  0.81277748  0.82433018     0.12300
N157        N  0.16455903  0.84963300  0.76633082     0.61100
H158        H  0.14424663  0.82620147  0.69137344     0.08400
O159        O  0.10759309  0.73277000  0.65203407    -0.40400
O160        O  0.99476148  0.73398054  0.65088477    -0.39600
O161        O  0.10873380  0.83437209  0.60157118    -0.39600
O162        O  0.99722181  0.83460459  0.61435211    -0.37300
O163        O  0.22483067  0.84466917  0.77964394    -0.38200
O164        O  0.15523755  0.86640139  0.74699043    -0.34300
O165        O  0.95448839  0.77550925  0.77143098    -0.35700
O166        O  0.89717075  0.79690746  0.72796970    -0.40000
C167        C  0.01284676  0.77192131  0.33146409    -0.13700
C168        C  0.07669271  0.77920029  0.31470365     0.16700
C169        C  0.13702753  0.77641272  0.34301929     0.02900
C170        C  0.13190680  0.76738232  0.38807711    -0.12200
C171        C  0.06767703  0.76091930  0.40527139    -0.03300
C172        C  0.00801072  0.76276338  0.37640070     0.02200
C173        C  0.07727852  0.79186595  0.27110878     0.09000
N174        N  0.20356652  0.78299357  0.32696639     0.65400
H175        H  0.17794111  0.76588715  0.41034132     0.18300
N176        N  0.94149445  0.75672455  0.39367209     0.75900
H177        H  0.96575893  0.77442694  0.31095615     0.09800
C178        C  0.04768683  0.78544727  0.22726239     0.03500
C179        C  0.04368550  0.79856267  0.18837363    -0.05200
C180        C  0.06911205  0.81814428  0.19194302    -0.23600
C181        C  0.09911556  0.82450183  0.23585951     0.12800
C182        C  0.10212303  0.81145274  0.27492043    -0.12700
N183        N  0.02219071  0.76558759  0.22142597     0.64400
H184        H  0.02001952  0.79335089  0.15524590     0.12300
N185        N  0.12923064  0.84382826  0.24114417     0.61100
H186        H  0.12331720  0.81679516  0.30872431     0.08400
O187        O  0.91271374  0.74147601  0.37595338    -0.40400
O188        O  0.90648549  0.76851285  0.41951676    -0.39600
O189        O  0.23214683  0.79766234  0.34753390    -0.39600
O190        O  0.23976367  0.77157699  0.30096162    -0.37300
O191        O  0.19263594  0.84619659  0.23138693    -0.38200
O192        O  0.09822896  0.85685592  0.26598098    -0.34300
O193        O  0.95761633  0.76263319  0.21822645    -0.35700
O194        O  0.06366146  0.75187657  0.20945634    -0.40000
C195        C  0.99569363  0.24088203  0.66774768    -0.13700
C196        C  0.04296527  0.24362232  0.70518859     0.16700
C197        C  0.09648542  0.25766378  0.70044479     0.02900
C198        C  0.10082057  0.26901800  0.65862831    -0.12200
C199        C  0.05360201  0.26645180  0.62016939    -0.03300
C200        C  0.99991031  0.25209855  0.62575653     0.02200
C201        C  0.03381095  0.23195208  0.74929526     0.09000
N202        N  0.14768349  0.26020731  0.73730572     0.65400
H203        H  0.14172270  0.28031251  0.65772429     0.18300
N204        N  0.94867383  0.24865600  0.58940166     0.75900
H205        H  0.95393089  0.23008049  0.67155269     0.09800
C206        C  0.00594059  0.24068652  0.79099496     0.03500
C207        C  0.99535232  0.22904241  0.83168748    -0.05200
C208        C  0.01142680  0.20859310  0.83172899    -0.23600
C209        C  0.03684549  0.19971416  0.78898907     0.12800
C210        C  0.04805275  0.21149731  0.74833243    -0.12700
N211        N  0.98509747  0.26113603  0.79189429     0.64400
H212        H  0.97309751  0.23609476  0.86318049     0.12300
N213        N  0.05283474  0.17896436  0.78616441     0.61100
H214        H  0.06800213  0.20465920  0.71578174     0.08400
O215        O  0.89438668  0.25918556  0.58930524    -0.40400
O216        O  0.94768345  0.23197110  0.56829397    -0.39600
O217        O  0.20197818  0.24966842  0.73613079    -0.39600
O218        O  0.14705518  0.27582510  0.76274675    -0.37300
O219        O  0.11405786  0.17320075  0.79458822    -0.38200
O220        O  0.01143723  0.16741202  0.76450109    -0.34300
O221        O  0.92467845  0.26571782  0.77808846    -0.35700
O222        O  0.01946253  0.27347463  0.81669105    -0.40000
C223        C  0.00636086  0.24765955  0.37947645    -0.13700
C224        C  0.06027357  0.25256365  0.34809928     0.16700
C225        C  0.10960729  0.26697483  0.36198506     0.02900
C226        C  0.10417384  0.27619316  0.40719991    -0.12200
C227        C  0.05033234  0.27111598  0.43871691    -0.03300
C228        C  0.00077626  0.25683684  0.42438014     0.02200
C229        C  0.06019959  0.24286902  0.30046070     0.09000
N230        N  0.16487130  0.27249818  0.33064674     0.65400
H231        H  0.14283261  0.28705048  0.41810262     0.18300
N232        N  0.94260294  0.25218630  0.45398586     0.75900
H233        H  0.96752703  0.23684466  0.36856551     0.09800
C234        C  0.10189338  0.22605611  0.29100465     0.03500
C235        C  0.08848033  0.21429036  0.25030398    -0.05200
C236        C  0.03420058  0.21914523  0.21870171    -0.23600
C237        C  0.99412415  0.23637976  0.22731035     0.12800
C238        C  0.00748474  0.24808322  0.26799097    -0.12700
N239        N  0.15544977  0.22015525  0.32365672     0.64400
H240        H  0.11999268  0.20117623  0.24367676     0.12300
N241        N  0.93557270  0.24110576  0.19773928     0.61100
H242        H  0.97388949  0.26065257  0.27584329     0.08400
O243        O  0.93322002  0.23443587  0.46716719    -0.40400
O244        O  0.89291047  0.26439760  0.45646912    -0.39600
O245        O  0.15658055  0.28706356  0.30268015    -0.39600
O246        O  0.22552204  0.26629361  0.33923831    -0.37300
O247        O  0.87729673  0.23349051  0.20710070    -0.38200
O248        O  0.93878441  0.25566237  0.16928720    -0.34300
O249        O  0.14275450  0.20704880  0.35478863    -0.35700
O250        O  0.21772129  0.22443275  0.31427229    -0.40000
C251        C  0.92133568  0.40298291  0.47614658    -0.13700
C252        C  0.87235046  0.40781868  0.44045407     0.16700
C253        C  0.83523604  0.39241562  0.41747160     0.02900
C254        C  0.84372003  0.37276024  0.43299868    -0.12200
C255        C  0.88946300  0.36808694  0.47080789    -0.03300
C256        C  0.92985205  0.38332535  0.49173000     0.02200
C257        C  0.86342791  0.42901247  0.42717709     0.09000
N258        N  0.78660550  0.39656000  0.37988676     0.65400
H259        H  0.81234041  0.36114646  0.41665803     0.18300
N260        N  0.97491877  0.37944515  0.53156182     0.75900
H261        H  0.95187368  0.41465686  0.49296290     0.09800
C262        C  0.84525230  0.44339226  0.46206161     0.03500
C263        C  0.85670944  0.46357628  0.45296211    -0.05200
C264        C  0.88737906  0.46977364  0.40975494    -0.23600
C265        C  0.89621739  0.45554970  0.37236338     0.12800
C266        C  0.88439115  0.43532100  0.38154103    -0.12700
N267        N  0.82021391  0.43763133  0.50830427     0.64400
H268        H  0.84755997  0.47421633  0.48170840     0.12300
N269        N  0.92475819  0.46091085  0.32684377     0.61100
H270        H  0.89774085  0.42439792  0.35425571     0.08400
O271        O  0.95096954  0.38040302  0.57371462    -0.40400
O272        O  0.03981631  0.37982704  0.52548844    -0.39600
O273        O  0.80249057  0.39252654  0.33691327    -0.39600
O274        O  0.72396679  0.39995635  0.39035216    -0.37300
O275        O  0.98918769  0.45902595  0.31992663    -0.38200
O276        O  0.88471941  0.46290598  0.29115704    -0.34300
O277        O  0.86110266  0.43780916  0.54388261    -0.35700
O278        O  0.75559488  0.43700877  0.51551567    -0.40000
C279        C  0.93175965  0.64336357  0.39311941    -0.13700
C280        C  0.87497648  0.63161844  0.40730079     0.16700
C281        C  0.81786281  0.64095038  0.42955594     0.02900
C282        C  0.81934779  0.66137596  0.43881787    -0.12200
C283        C  0.87750153  0.67301119  0.42719175    -0.03300
C284        C  0.93367388  0.66391590  0.40309296     0.02200
C285        C  0.88068906  0.60953777  0.40582162     0.09000
N286        N  0.75884019  0.62976258  0.44478239     0.65400
H287        H  0.77548167  0.66796038  0.45735233     0.18300
N288        N  0.99277530  0.67523063  0.38859941     0.75900
H289        H  0.97615910  0.63642656  0.37638158     0.09800
C290        C  0.89322931  0.59884894  0.36297648     0.03500
C291        C  0.90700366  0.57831010  0.36480276    -0.05200
C292        C  0.90802978  0.56800229  0.40889279    -0.23600
C293        C  0.89052750  0.57864752  0.45129983     0.12800
C294        C  0.87838959  0.59916113  0.44938983    -0.12700
N295        N  0.89221343  0.60861827  0.31741548     0.64400
H296        H  0.91961450  0.57060831  0.33162632     0.12300
N297        N  0.88712397  0.56913682  0.49710529     0.61100
H298        H  0.86960720  0.60717883  0.48273045     0.08400
O299        O  0.04659171  0.67532205  0.41461708    -0.40400
O300        O  0.99622958  0.68158088  0.34601764    -0.39600
O301        O  0.74995380  0.62665230  0.48908620    -0.39600
O302        O  0.70849371  0.62742843  0.41616191    -0.37300
O303        O  0.82873486  0.56396713  0.51327942    -0.38200
O304        O  0.93824033  0.57037929  0.52549533    -0.34300
O305        O  0.94858894  0.61196376  0.29591430    -0.35700
O306        O  0.83568628  0.60996423  0.29455841    -0.40000
C307        C  0.63788032  0.73504376  0.52517122    -0.13700
C308        C  0.59582167  0.73462265  0.48386162     0.16700
C309        C  0.62724447  0.73391996  0.43822006     0.02900
C310        C  0.69931424  0.73165049  0.43470331    -0.12200
C311        C  0.74087114  0.73015499  0.47611264    -0.03300
C312        C  0.71018614  0.73288567  0.52164719     0.02200
C313        C  0.52107406  0.73010762  0.48915113     0.09000
N314        N  0.58610940  0.73340239  0.39534793     0.65400
H315        H  0.72233718  0.72952154  0.39950590     0.18300
N316        N  0.75025029  0.73093305  0.56469979     0.75900
H317        H  0.61399196  0.73532198  0.56041998     0.09800
C318        C  0.50058212  0.71032984  0.49722924     0.03500
C319        C  0.43037983  0.70559066  0.50011349    -0.05200
C320        C  0.37852224  0.72018900  0.49456973    -0.23600
C321        C  0.39913085  0.74029737  0.48891315     0.12800
C322        C  0.47027485  0.74506207  0.48579272    -0.12700
N323        N  0.55077862  0.69468641  0.50086907     0.64400
H324        H  0.41660721  0.69012792  0.50565130     0.12300
N325        N  0.34903170  0.75593823  0.48528872     0.61100
H326        H  0.48583831  0.76038128  0.48024034     0.08400
O327        O  0.75433898  0.71418831  0.58497160    -0.40400
O328        O  0.76863013  0.74638019  0.58740565    -0.39600
O329        O  0.57948331  0.74901145  0.37063124    -0.39600
O330        O  0.56873203  0.71683176  0.37740160    -0.37300
O331        O  0.33454643  0.76618567  0.52210864    -0.38200
O332        O  0.33018335  0.76197672  0.44435293    -0.34300
O333        O  0.56600450  0.68773347  0.54166187    -0.35700
O334        O  0.56894628  0.68533527  0.46346951    -0.40000
C335        C  0.20934872  0.58881818  0.47254643    -0.13700
C336        C  0.19146637  0.60274568  0.43723560     0.16700
C337        C  0.16367404  0.59621428  0.39312120     0.02900
C338        C  0.14825278  0.57609983  0.38649416    -0.12200
C339        C  0.16018394  0.56228960  0.42342913    -0.03300
C340        C  0.19474839  0.56857856  0.46566432     0.02200
C341        C  0.20086978  0.62410514  0.44701948     0.09000
N342        N  0.14583022  0.61005915  0.35621712     0.65400
H343        H  0.12151131  0.57164067  0.35381080     0.18300
N344        N  0.21556291  0.55459693  0.50153799     0.75900
H345        H  0.23349496  0.59373894  0.50580184     0.09800
C346        C  0.15498330  0.63455398  0.47735207     0.03500
C347        C  0.16400581  0.65499419  0.48476696    -0.05200
C348        C  0.21916880  0.66517001  0.46301924    -0.23600
C349        C  0.26589338  0.65448377  0.43331411     0.12800
C350        C  0.25582280  0.63413714  0.42518502    -0.12700
N351        N  0.09912313  0.62457916  0.50084509     0.64400
H352        H  0.12850951  0.66284152  0.50839720     0.12300
N353        N  0.32310035  0.66406975  0.41044014     0.61100
H354        H  0.29121607  0.62609049  0.40185773     0.08400
O355        O  0.18231289  0.55355198  0.54048076    -0.40400
O356        O  0.27440620  0.54639529  0.49837972    -0.39600
O357        O  0.18638843  0.61245765  0.32117104    -0.39600
O358        O  0.08452330  0.61659955  0.35360352    -0.37300
O359        O  0.38340504  0.66201102  0.42766020    -0.38200
O360        O  0.31581894  0.67067317  0.36830176    -0.34300
O361        O  0.10530118  0.61979970  0.54450684    -0.35700
O362        O  0.04004060  0.62401850  0.48112162    -0.40000
C363        C  0.63977485  0.29573644  0.52469960    -0.13700
C364        C  0.59519482  0.31120187  0.53881195     0.16700
C365        C  0.62340442  0.32932138  0.55520849     0.02900
C366        C  0.69509296  0.33222784  0.55408861    -0.12200
C367        C  0.73983481  0.31736845  0.53653112    -0.03300
C368        C  0.71198306  0.29862436  0.52376062     0.02200
C369        C  0.52007323  0.30966031  0.52892618     0.09000
N370        N  0.57952124  0.34549743  0.56931764     0.65400
H371        H  0.71559118  0.34667871  0.56434629     0.18300
N372        N  0.75504250  0.28310663  0.50518915     0.75900
H373        H  0.61822046  0.28180445  0.51168718     0.09800
C374        C  0.49410341  0.31540413  0.48375673     0.03500
C375        C  0.42266359  0.31690204  0.47655216    -0.05200
C376        C  0.37569259  0.31284279  0.51376857    -0.23600
C377        C  0.40150858  0.30560868  0.55801975     0.12800
C378        C  0.47368691  0.30425668  0.56541462    -0.12700
N379        N  0.53986068  0.32103578  0.44578033     0.64400
H380        H  0.40385750  0.32227612  0.44216517     0.12300
N381        N  0.35582122  0.30090753  0.59669592     0.61100
H382        H  0.49356355  0.29972573  0.60019953     0.08400
O383        O  0.75606124  0.28000377  0.46039308    -0.40400
O384        O  0.77572136  0.26960089  0.53321288    -0.39600
O385        O  0.56909757  0.34874305  0.61345128    -0.39600
O386        O  0.56426629  0.35879451  0.53911626    -0.37300
O387        O  0.33688872  0.28308839  0.60244156    -0.38200
O388        O  0.34781406  0.31326876  0.63057908    -0.34300
O389        O  0.55211089  0.30886760  0.41211663    -0.35700
O390        O  0.55599900  0.33912010  0.44075897    -0.40000
C391        C  0.19503431  0.43889233  0.46841832    -0.13700
C392        C  0.19501782  0.42702047  0.42674698     0.16700
C393        C  0.17474343  0.43551911  0.38266424     0.02900
C394        C  0.15237832  0.45533674  0.38129507    -0.12200
C395        C  0.14809716  0.46692650  0.42348963    -0.03300
C396        C  0.17185713  0.45864786  0.46728338     0.02200
C397        C  0.20861022  0.40539860  0.43167021     0.09000
N398        N  0.17421325  0.42405320  0.33921894     0.65400
H399        H  0.13458090  0.46125966  0.34722934     0.18300
N400        N  0.17015539  0.46970246  0.51134663     0.75900
H401        H  0.20968547  0.43247612  0.50267919     0.09800
C402        C  0.27006694  0.39838927  0.45334712     0.03500
C403        C  0.27578669  0.37835007  0.46588061    -0.05200
C404        C  0.22161730  0.36480099  0.45648912    -0.23600
C405        C  0.16230121  0.37152041  0.43146927     0.12800
C406        C  0.15566507  0.39176908  0.42016734    -0.12700
N407        N  0.32696672  0.41147117  0.46324503     0.64400
H408        H  0.32258645  0.37354384  0.48422461     0.12300
N409        N  0.11002084  0.35792467  0.41541703     0.61100
H410        H  0.10801634  0.39693206  0.40357847     0.08400
O411        O  0.22337383  0.47922971  0.52462028    -0.40400
O412        O  0.12244330  0.46640642  0.54129274    -0.39600
O413        O  0.11715238  0.41768014  0.32286489    -0.39600
O414        O  0.22639182  0.42457800  0.31192110    -0.37300
O415        O  0.11342071  0.35085892  0.37333851    -0.38200
O416        O  0.05411587  0.35641306  0.43859698    -0.34300
O417        O  0.34078862  0.41618776  0.50622581    -0.35700
O418        O  0.37186237  0.41438690  0.43107356    -0.40000
loop_ 
_geom_bond_atom_site_label_1 
_geom_bond_atom_site_label_2 
_geom_bond_distance 
_geom_bond_site_symmetry_2 
_ccdc_geom_bond_type 
C1            N2   1.359       .  A
C1            N6   1.352       .  A
C1          C376   1.480       .  S
N2            C3   1.367       .  A
C3            N4   1.362       .  A
C3           C46   1.477       .  S
N4            C5   1.360       .  A
C5            N6   1.351       .  A
C5          C404   1.482       .  S
C7            N8   1.362       .  A
C7           N12   1.356       .  A
C7          C320   1.490       .  S
N8            C9   1.366       .  A
C9           N10   1.357       .  A
C9           C53   1.471       .  S
N10          C11   1.357       .  A
C11          N12   1.351       .  A
C11         C348   1.475       .  S
C13          N14   1.351       .  A
C13          N18   1.357       .  A
C13         C311   1.475       .  S
N14          C15   1.354       .  A
C15          N16   1.361       .  A
C15         C283   1.482       .  S
N16          C17   1.364       .  A
C17          N18   1.365       .  A
C17          C58   1.478       .  S
O19         Cu27   2.006   1_655  S
O19          C29   1.277       .  A
O20         Cu27   2.002       .  S
O20          C30   1.276       .  A
O21         Cu27   1.996       .  S
O21          C31   1.276       .  A
O22         Cu27   1.999   1_655  S
O22          C32   1.279       .  A
O23         Cu28   2.008   1_655  S
O23          C32   1.277       .  A
O24         Cu28   1.996       .  S
O24          C31   1.277       .  A
O25         Cu28   2.005       .  S
O25          C30   1.279       .  A
O26         Cu28   2.015   1_655  S
O26          C29   1.280       .  A
Cu27        Cu28   2.366       .  S
C29         C292   1.492       .  S
C30         C395   1.484       .  S
C31         C339   1.472       .  S
C32         C264   1.485       .  S
C33          N34   1.351       .  A
C33          N38   1.358       .  A
C33         C367   1.478       .  S
N34          C35   1.351       .  A
C35          N36   1.361       .  A
C35         C255   1.473       .  S
N36          C37   1.364       .  A
C37          N38   1.366       .  A
C37          C41   1.475       .  S
C39          C40   1.533   1_455  S
C39          C45   1.547       .  S
C39          C43   1.537       .  S
C39         C199   1.532       .  S
C40          H47   1.087       .  S
C40          C41   1.361       .  D
C41          C42   1.540   1_655  S
C42          C46   1.539       .  S
C42          C44   1.539       .  S
C42          H48   1.111       .  S
C43          H49   1.086       .  S
C43          C44   1.365       .  D
C44         C227   1.475       .  S
C45          H50   1.090       .  S
C45          C46   1.363       .  D
C51          C52   1.535       .  S
C51          C57   1.538   1_455  S
C51          C55   1.548       .  S
C51         C143   1.532       .  S
C52          H59   1.086       .  S
C52          C53   1.361       .  D
C53          C54   1.541       .  S
C54          C58   1.538   1_455  S
C54          C56   1.529       .  S
C54          H60   1.111       .  S
C55          H61   1.075       .  S
C55          C56   1.363       .  D
C56         C171   1.467       .  S
C57          H62   1.086       .  S
C57          C58   1.365       .  D
N63          C67   1.346       .  A
N63          N64   1.318       .  A
N63         Cu71   2.063       .  S
N64          C65   1.337   1_655  A
N64         Cu70   2.050   1_556  S
C65          C66   1.384       .  A
C65          H68   1.082       .  S
C66         C208   1.482       .  S
C66          C67   1.390   1_455  A
C67          H69   1.080       .  S
Cu70         N73   2.051   1_655  S
Cu71         N81   2.064   1_556  S
Cu72         N74   2.083   1_655  S
Cu72         N80   2.083       .  S
N73          C77   1.341       .  A
N73          N74   1.322       .  A
N74          C75   1.346       .  A
C75          C76   1.385       .  A
C75          H78   1.082       .  S
C76         C236   1.471       .  S
C76          C77   1.378       .  A
C77          H79   1.082       .  S
N80          C84   1.348       .  A
N80          N81   1.323       .  A
N81          C82   1.339       .  A
C82          C83   1.380       .  A
C82          H85   1.082   1_554  S
C83         C115   1.476       .  S
C83          C84   1.386       .  A
C84          H86   1.082       .  S
N87          C91   1.346       .  A
N87          N88   1.321       .  A
N87         Cu95   2.063       .  S
N88          C89   1.340       .  A
N88         Cu94   2.063       .  S
C89          C90   1.382       .  A
C89          H92   1.082       .  S
C90         C152   1.472       .  S
C90          C91   1.383       .  A
C91          H93   1.081       .  S
Cu94         N97   2.063   1_556  S
Cu95        N105   2.064       .  S
Cu96         N98   2.074       .  S
Cu96        N104   2.075       .  S
N97         C101   1.342       .  A
N97          N98   1.320       .  A
N98          C99   1.346       .  A
C99         C100   1.389       .  A
C99         H102   1.080       .  S
C100        C180   1.485       .  S
C100        C101   1.385       .  A
C101        H103   1.082       .  S
N104        C108   1.343       .  A
N104        N105   1.322   1_554  A
N105        C106   1.343       .  A
C106        C107   1.385   1_556  A
C106        H109   1.080       .  S
C107        C124   1.483       .  S
C107        C108   1.387       .  A
C108        H110   1.082       .  S
C111        C112   1.405   1_655  A
C111        C116   1.401       .  A
C111        H121   1.083       .  S
C112        C117   1.481       .  S
C112        C113   1.410       .  A
C113        C114   1.395       .  A
C113        N118   1.430   1_554  S
C114        C115   1.403   1_455  A
C114        H119   1.083   1_554  S
C115        C116   1.409       .  A
C116        N120   1.429       .  S
C117        C122   1.409   1_545  A
C117        C126   1.402   1_444  A
N118        O133   1.262       .  A
N118        O134   1.262       .  A
N120        O131   1.262       .  A
N120        O132   1.262       .  A
C122        C123   1.398       .  A
C122        N127   1.429   1_565  S
C123        C124   1.405       .  A
C123        H128   1.083       .  S
C124        C125   1.414   1_454  A
C125        C126   1.398       .  A
C125        N129   1.429       .  S
C126        H130   1.083   1_565  S
N127        O137   1.262       .  A
N127        O138   1.262       .  A
N129        O135   1.262   1_655  A
N129        O136   1.262       .  A
C139        C140   1.401       .  A
C139        C144   1.398       .  A
C139        H149   1.081       .  S
C140        C145   1.485       .  S
C140        C141   1.407       .  A
C141        C142   1.398       .  A
C141        N146   1.430       .  S
C142        C143   1.412       .  A
C142        H147   1.064       .  S
C143        C144   1.420       .  A
C144        N148   1.431       .  S
C145        C150   1.412       .  A
C145        C154   1.406       .  A
N146        O161   1.262       .  A
N146        O162   1.261   1_455  A
N148        O159   1.262       .  A
N148        O160   1.262   1_455  A
C150        C151   1.395       .  A
C150        N155   1.430   1_455  S
C151        C152   1.400       .  A
C151        H156   1.084   1_455  S
C152        C153   1.408       .  A
C153        C154   1.400       .  A
C153        N157   1.429       .  S
C154        H158   1.082       .  S
N155        O165   1.262       .  A
N155        O166   1.262       .  A
N157        O163   1.262       .  A
N157        O164   1.262       .  A
C167        C168   1.405       .  A
C167        C172   1.398       .  A
C167        H177   1.083   1_455  S
C168        C173   1.484       .  S
C168        C169   1.414       .  A
C169        C170   1.398       .  A
C169        N174   1.429       .  S
C170        C171   1.398       .  A
C170        H175   1.084       .  S
C171        C172   1.405       .  A
C172        N176   1.429   1_455  S
C173        C178   1.409       .  A
C173        C182   1.403       .  A
N174        O189   1.262       .  A
N174        O190   1.262       .  A
N176        O187   1.262       .  A
N176        O188   1.262       .  A
C178        C179   1.399       .  A
C178        N183   1.429       .  S
C179        C180   1.406       .  A
C179        H184   1.083       .  S
C180        C181   1.413       .  A
C181        C182   1.399       .  A
C181        N185   1.428       .  S
C182        H186   1.083       .  S
N183        O193   1.262   1_455  A
N183        O194   1.262       .  A
N185        O191   1.262       .  A
N185        O192   1.262       .  A
C195        C196   1.392   1_655  A
C195        C200   1.395       .  A
C195        H205   1.089       .  S
C196        C201   1.469       .  S
C196        C197   1.404       .  A
C197        C198   1.396       .  A
C197        N202   1.429       .  S
C198        C199   1.411       .  A
C198        H203   1.094       .  S
C199        C200   1.423   1_455  A
C200        N204   1.428       .  S
C201        C206   1.404       .  A
C201        C210   1.400       .  A
N202        O217   1.262       .  A
N202        O218   1.262       .  A
N204        O215   1.261       .  A
N204        O216   1.262       .  A
C206        C207   1.394   1_455  A
C206        N211   1.430   1_455  S
C207        C208   1.407   1_655  A
C207        H212   1.082       .  S
C208        C209   1.415       .  A
C209        C210   1.400       .  A
C209        N213   1.428       .  S
C210        H214   1.084       .  S
N211        O221   1.262       .  A
N211        O222   1.262   1_655  A
N213        O219   1.262       .  A
N213        O220   1.262       .  A
C223        C224   1.399       .  A
C223        C228   1.393       .  A
C223        H233   1.084   1_455  S
C224        C229   1.472       .  S
C224        C225   1.408       .  A
C225        C226   1.402       .  A
C225        N230   1.428       .  S
C226        C227   1.403       .  A
C226        H231   1.084       .  S
C227        C228   1.409       .  A
C228        N232   1.428   1_455  S
C229        C234   1.408       .  A
C229        C238   1.401       .  A
N230        O245   1.262       .  A
N230        O246   1.262       .  A
N232        O243   1.262       .  A
N232        O244   1.261       .  A
C234        C235   1.400       .  A
C234        N239   1.428       .  S
C235        C236   1.402       .  A
C235        H240   1.084       .  S
C236        C237   1.409   1_455  A
C237        C238   1.397   1_655  A
C237        N241   1.429       .  S
C238        H242   1.084   1_455  S
N239        O249   1.262       .  A
N239        O250   1.262       .  A
N241        O247   1.262       .  A
N241        O248   1.262       .  A
C251        C252   1.405       .  A
C251        C256   1.400       .  A
C251        H261   1.084       .  S
C252        C257   1.481       .  S
C252        C253   1.407       .  A
C253        C254   1.399       .  A
C253        N258   1.429       .  S
C254        C255   1.405       .  A
C254        H259   1.084       .  S
C255        C256   1.408       .  A
C256        N260   1.429       .  S
C257        C262   1.409       .  A
C257        C266   1.400       .  A
N258        O273   1.262       .  A
N258        O274   1.262       .  A
N260        O271   1.262       .  A
N260        O272   1.262   1_655  A
C262        C263   1.397       .  A
C262        N267   1.429       .  S
C263        C264   1.405       .  A
C263        H268   1.084       .  S
C264        C265   1.418       .  A
C265        C266   1.402       .  A
C265        N269   1.429       .  S
C266        H270   1.083       .  S
N267        O277   1.262       .  A
N267        O278   1.262       .  A
N269        O275   1.262       .  A
N269        O276   1.262       .  A
C279        C280   1.407       .  A
C279        C284   1.406       .  A
C279        H289   1.079       .  S
C280        C285   1.486       .  S
C280        C281   1.408       .  A
C281        C282   1.394       .  A
C281        N286   1.429       .  S
C282        C283   1.405       .  A
C282        H287   1.083       .  S
C283        C284   1.411       .  A
C284        N288   1.429       .  S
C285        C290   1.409       .  A
C285        C294   1.401       .  A
N286        O301   1.262       .  A
N286        O302   1.261       .  A
N288        O299   1.262   1_655  A
N288        O300   1.262       .  A
C290        C291   1.405       .  A
C290        N295   1.429       .  S
C291        C292   1.410       .  A
C291        H296   1.083       .  S
C292        C293   1.417       .  A
C293        C294   1.397       .  A
C293        N297   1.429       .  S
C294        H298   1.083       .  S
N295        O305   1.262       .  A
N295        O306   1.262       .  A
N297        O303   1.262       .  A
N297        O304   1.262       .  A
C307        C308   1.403       .  A
C307        C312   1.403       .  A
C307        H317   1.084       .  S
C308        C313   1.479       .  S
C308        C309   1.408       .  A
C309        C310   1.399       .  A
C309        N314   1.429       .  S
C310        C311   1.403       .  A
C310        H315   1.084       .  S
C311        C312   1.409       .  A
C312        N316   1.428       .  S
C313        C318   1.405       .  A
C313        C322   1.404       .  A
N314        O329   1.262       .  A
N314        O330   1.262       .  A
N316        O327   1.262       .  A
N316        O328   1.262       .  A
C318        C319   1.392       .  A
C318        N323   1.430       .  S
C319        C320   1.406       .  A
C319        H324   1.083       .  S
C320        C321   1.417       .  A
C321        C322   1.410       .  A
C321        N325   1.428       .  S
C322        H326   1.083       .  S
N323        O333   1.262       .  A
N323        O334   1.262       .  A
N325        O331   1.262       .  A
N325        O332   1.262       .  A
C335        C336   1.400       .  A
C335        C340   1.400       .  A
C335        H345   1.084       .  S
C336        C341   1.469       .  S
C336        C337   1.405       .  A
C337        C338   1.394       .  A
C337        N342   1.428       .  S
C338        C339   1.405       .  A
C338        H343   1.084       .  S
C339        C340   1.411       .  A
C340        N344   1.429       .  S
C341        C346   1.407       .  A
C341        C350   1.397       .  A
N342        O357   1.261       .  A
N342        O358   1.261       .  A
N344        O355   1.262       .  A
N344        O356   1.262       .  A
C346        C347   1.397       .  A
C346        N351   1.429       .  S
C347        C348   1.404       .  A
C347        H352   1.084       .  S
C348        C349   1.415       .  A
C349        C350   1.397       .  A
C349        N353   1.429       .  S
C350        H354   1.084       .  S
N351        O361   1.262       .  A
N351        O362   1.262       .  A
N353        O359   1.262       .  A
N353        O360   1.262       .  A
C363        C364   1.401       .  A
C363        C368   1.404       .  A
C363        H373   1.084       .  S
C364        C369   1.475       .  S
C364        C365   1.406       .  A
C365        C366   1.395       .  A
C365        N370   1.429       .  S
C366        C367   1.404       .  A
C366        H371   1.084       .  S
C367        C368   1.412       .  A
C368        N372   1.426       .  S
C369        C374   1.405       .  A
C369        C378   1.403       .  A
N370        O385   1.261       .  A
N370        O386   1.262       .  A
N372        O383   1.262       .  A
N372        O384   1.261       .  A
C374        C375   1.393       .  A
C374        N379   1.430       .  S
C375        C376   1.404       .  A
C375        H380   1.084       .  S
C376        C377   1.413       .  A
C377        C378   1.407       .  A
C377        N381   1.428       .  S
C378        H382   1.083       .  S
N379        O389   1.262       .  A
N379        O390   1.262       .  A
N381        O387   1.262       .  A
N381        O388   1.262       .  A
C391        C392   1.403       .  A
C391        C396   1.399       .  A
C391        H401   1.083       .  S
C392        C397   1.481       .  S
C392        C393   1.408       .  A
C393        C394   1.398       .  A
C393        N398   1.429       .  S
C394        C395   1.407       .  A
C394        H399   1.083       .  S
C395        C396   1.415       .  A
C396        N400   1.429       .  S
C397        C402   1.407       .  A
C397        C406   1.406       .  A
N398        O413   1.262       .  A
N398        O414   1.262       .  A
N400        O411   1.262       .  A
N400        O412   1.262       .  A
C402        C403   1.395       .  A
C402        N407   1.430       .  S
C403        C404   1.408       .  A
C403        H408   1.083       .  S
C404        C405   1.410       .  A
C405        C406   1.402       .  A
C405        N409   1.429       .  S
C406        H410   1.083       .  S
N407        O417   1.262       .  A
N407        O418   1.262       .  A
N409        O415   1.262       .  A
N409        O416   1.261       .  A
