geometry optimzed in LAMMPS
_audit_creation_date              2020-11-30 
_audit_creation_method            'lammps2cif' 
_symmetry_space_group_name_H-M    'P1' 
_symmetry_Int_Tables_number       1 
_symmetry_cell_setting            triclinic 
loop_ 
_symmetry_equiv_pos_as_xyz 
  x,y,z 
_cell_length_a                    44.947653950158426 
_cell_length_b                    44.68997564088266 
_cell_length_c                    44.99594466937699 
_cell_angle_alpha                 89.43148639135711 
_cell_angle_beta                  91.18433640428556 
_cell_angle_gamma                 88.64456808933704 
loop_ 
_atom_site_label 
_atom_site_type_symbol 
_atom_site_fract_x 
_atom_site_fract_y 
_atom_site_fract_z 
_atom_site_charge 
O1          O  0.11460157  0.12608092  0.42057293    -0.56270
C2          C  0.11625242  0.18585941  0.37161082     0.76360
O3          O  0.16415987  0.13678542  0.34426255    -0.57430
C4          C  0.12155764  0.09912901  0.42694277     0.76330
C5          C  0.05860733  0.10424476  0.34707160     0.78720
Cd6        Cd  0.11734867  0.12209539  0.36849688     1.37460
O7          O  0.11974180  0.16917270  0.39433020    -0.56270
O8          O  0.06412865  0.11710853  0.37128551    -0.55080
C9          C  0.18076939  0.11711395  0.35706224     0.78680
O10         O  0.08090504  0.09900011  0.33071139    -0.57450
O11         O  0.11182889  0.17265460  0.34713488    -0.55900
O12         O  0.12441316  0.08099665  0.40562125    -0.55890
O13         O  0.16688061  0.09594482  0.36901789    -0.55060
O14         O  0.06115077  0.38011826  0.37957967    -0.56270
C15         C  0.12026516  0.31495133  0.37871008     0.76360
O16         O  0.13520233  0.39229543  0.32225880    -0.57430
C17         C  0.05684700  0.40620676  0.36882413     0.76330
C18         C  0.13771234  0.39743592  0.42875548     0.78720
Cd19       Cd  0.11325392  0.37773863  0.37199398     1.37460
O20         O  0.09623265  0.32844858  0.38525853    -0.56270
O21         O  0.11039429  0.39361776  0.42346745    -0.55080
C22         C  0.11758969  0.37582901  0.30729191     0.78680
O23         O  0.15485469  0.39491430  0.40665284    -0.57450
O24         O  0.14192362  0.33083263  0.37130267    -0.55900
O25         O  0.07940238  0.42080866  0.36115725    -0.55890
O26         O  0.09942759  0.36153565  0.32264826    -0.55060
O27         O  0.10698674  0.16866322  0.59315139    -0.56270
C28         C  0.11964344  0.09738015  0.55135034     0.76360
O29         O  0.16834447  0.10285148  0.63573009    -0.57430
C30         C  0.11747220  0.18170372  0.61580928     0.76330
C31         C  0.06252463  0.10292583  0.63583094     0.78720
Cd32       Cd  0.11918703  0.11898927  0.61000729     1.37460
O33         O  0.11075142  0.12346685  0.55787022    -0.56270
O34         O  0.06772527  0.12774529  0.62367046    -0.55080
C35         C  0.18358900  0.11777973  0.61732084     0.78680
O36         O  0.08455028  0.08452120  0.63820860    -0.57450
O37         O  0.12478431  0.07899248  0.57254775    -0.55900
O38         O  0.12680583  0.16517073  0.63736326    -0.55890
O39         O  0.16892648  0.13185823  0.59732553    -0.55060
O40         O  0.09954171  0.32512504  0.60717514    -0.56270
C41         C  0.06137254  0.39170819  0.60540634     0.76360
O42         O  0.15193748  0.37205770  0.66081378    -0.57430
C43         C  0.12268655  0.31039964  0.61544759     0.76330
C44         C  0.14684230  0.39130335  0.55553020     0.78720
Cd45       Cd  0.12165199  0.37343160  0.61236650     1.37470
O46         O  0.07020424  0.36519491  0.60035740    -0.56270
O47         O  0.14224152  0.36460170  0.56306017    -0.55080
C48         C  0.13014890  0.38100646  0.67624182     0.78680
O49         O  0.14377837  0.41049857  0.57596692    -0.57450
O50         O  0.08081124  0.41079356  0.61188065    -0.55900
O51         O  0.14575502  0.32483620  0.62220680    -0.55890
O52         O  0.10768333  0.39062964  0.66151101    -0.55060
O53         O  0.89368251  0.32384055  0.36206401    -0.56270
C54         C  0.93381698  0.40116226  0.36222586     0.76360
O55         O  0.84842819  0.39390917  0.31578560    -0.57430
C56         C  0.86853368  0.31327015  0.35557391     0.76330
C57         C  0.86307127  0.38518296  0.42378791     0.78720
Cd58       Cd  0.87740006  0.37540189  0.36174909     1.37470
O59         O  0.93012252  0.37318422  0.36386859    -0.56270
O60         O  0.88550689  0.37142507  0.41385294    -0.55080
C61         C  0.86967965  0.38554131  0.29908078     0.78680
O62         O  0.84530274  0.39640821  0.40390432    -0.57450
O63         O  0.91080361  0.41828940  0.36175744    -0.55900
O64         O  0.84654435  0.33156620  0.35402022    -0.55890
O65         O  0.89284720  0.37480059  0.31177123    -0.55060
O66         O  0.89383731  0.13408734  0.41031885    -0.56270
C67         C  0.86879290  0.18576404  0.35005293     0.76360
O68         O  0.91168892  0.08455402  0.34380071    -0.57430
C69         C  0.88573745  0.10979965  0.42210747     0.76330
C70         C  0.81098293  0.11575226  0.36258165     0.78720
Cd71       Cd  0.87498961  0.12369225  0.36164374     1.37460
O72         O  0.87700343  0.17534137  0.37524111    -0.56270
O73         O  0.82719505  0.12194471  0.38469364    -0.55080
C74         C  0.93134055  0.10348518  0.33741614     0.78680
O75         O  0.82497509  0.11000948  0.33878260    -0.57450
O76         O  0.86417297  0.16734542  0.32927592    -0.55900
O77         O  0.87622327  0.08980456  0.40479449    -0.55890
O78         O  0.92297278  0.13063615  0.33744612    -0.55060
O79         O  0.89659318  0.12626672  0.56218452    -0.56270
C80         C  0.87976928  0.18052134  0.61390030     0.76360
O81         O  0.83047150  0.09640779  0.63108688    -0.57430
C82         C  0.88515679  0.10390100  0.54986524     0.76330
C83         C  0.93489843  0.09899780  0.63953327     0.78720
Cd84       Cd  0.87855258  0.11726542  0.61036432     1.37470
O85         O  0.88671537  0.16611743  0.59089779    -0.56270
O86         O  0.92141878  0.12355336  0.64428031    -0.55080
C87         C  0.81420296  0.11449868  0.61532840     0.78680
O88         O  0.91956813  0.08010206  0.62540423    -0.57450
O89         O  0.87357592  0.16474567  0.63647909    -0.55900
O90         O  0.87360249  0.08451535  0.56652599    -0.55890
O91         O  0.82779900  0.13229917  0.59893315    -0.55060
O92         O  0.89524007  0.32436289  0.60230619    -0.56270
C93         C  0.93542275  0.39063019  0.60662408     0.76360
O94         O  0.84506088  0.36744351  0.56666120    -0.57430
C95         C  0.87307856  0.31052637  0.61186362     0.76330
C96         C  0.86761341  0.38523367  0.67494698     0.78720
Cd97       Cd  0.87553806  0.37401178  0.61213980     1.37460
O98         O  0.92764133  0.36362721  0.60535077    -0.56270
O99         O  0.89197115  0.37915633  0.66286353    -0.55080
C100        C  0.85303709  0.39096004  0.55353048     0.78680
O101        O  0.84504015  0.38849291  0.65752040    -0.57450
O102        O  0.91520343  0.41062494  0.60930319    -0.55900
O103        O  0.85146072  0.32619014  0.62134463    -0.55890
O104        O  0.86536731  0.41037210  0.56965498    -0.55060
O105        O  0.37430213  0.09465410  0.31963338    -0.56270
C106        C  0.37398454  0.06291321  0.38992154     0.76360
O107        O  0.41100332  0.15620325  0.39173988    -0.57430
C108        C  0.37046440  0.11732437  0.30282002     0.76330
C109        C  0.31029299  0.13311363  0.37484616     0.78720
Cd110      Cd  0.37362796  0.12145970  0.36596432     1.37460
O111        O  0.37550461  0.06885966  0.36245329    -0.56270
O112        O  0.32607890  0.11649593  0.39208264    -0.55080
C113        C  0.43317578  0.14250569  0.38047106     0.78680
O114        O  0.32502196  0.14928532  0.35737200    -0.57450
O115        O  0.37473352  0.08462481  0.40783917    -0.55900
O116        O  0.36806249  0.14258515  0.31531459    -0.55890
O117        O  0.42704826  0.12206432  0.36245879    -0.55060
O118        O  0.39579660  0.10751472  0.16266694    -0.56270
C119        C  0.43740894  0.12030545  0.09276409     0.76360
O120        O  0.33975976  0.08171341  0.09175859    -0.57430
C121        C  0.37053510  0.10934320  0.17451414     0.76330
C122        C  0.37017265  0.18148288  0.10947143     0.78720
Cd123      Cd  0.37864299  0.11685300  0.11239181     1.37470
O124        O  0.43081077  0.11145947  0.11855405    -0.56270
O125        O  0.38179250  0.16715010  0.13118103    -0.55080
C126        C  0.35798097  0.05944440  0.09123860     0.78680
O127        O  0.35953147  0.16563331  0.08851243    -0.57450
O128        O  0.41628716  0.12528903  0.07409679    -0.55900
O129        O  0.34825041  0.11314360  0.15698923    -0.55890
O130        O  0.38469425  0.06487128  0.09805600    -0.55060
O131        O  0.60724084  0.11661118  0.16108688    -0.56270
C132        C  0.56299319  0.12161087  0.09393051     0.76360
O133        O  0.64924381  0.17267975  0.09801699    -0.57430
C134        C  0.63006604  0.12754570  0.17341466     0.76330
C135        C  0.64560427  0.06518365  0.09888162     0.78720
Cd136      Cd  0.62304162  0.12474986  0.11146331     1.37460
O137        O  0.57223266  0.11565213  0.12014730    -0.56270
O138        O  0.64798455  0.07750019  0.12390959    -0.55080
C139        C  0.62655720  0.18863057  0.10520052     0.78680
O140        O  0.63867051  0.08243096  0.07704095    -0.57450
O141        O  0.58227529  0.12569057  0.07417945    -0.55900
O142        O  0.65069016  0.13650827  0.15692850    -0.55890
O143        O  0.60369065  0.17463959  0.11205553    -0.55060
O144        O  0.60165977  0.07391624  0.35543635    -0.56270
C145        C  0.61924635  0.13048579  0.30024074     0.76360
O146        O  0.58146310  0.14568706  0.40064043    -0.57430
C147        C  0.60474150  0.06587399  0.38241786     0.76330
C148        C  0.68046776  0.12394658  0.36913953     0.78720
Cd149      Cd  0.61627523  0.12441324  0.36253856     1.37470
O150        O  0.60693400  0.10860012  0.31270885    -0.56270
O151        O  0.66535096  0.10117330  0.36361632    -0.55080
C152        C  0.56038104  0.15068766  0.38185689     0.78680
O153        O  0.66567897  0.14782465  0.37509806    -0.57450
O154        O  0.62780029  0.15150716  0.31692139    -0.55900
O155        O  0.61310875  0.08550041  0.40071864    -0.55890
O156        O  0.56714357  0.14925295  0.35479055    -0.55060
O157        O  0.62776918  0.89973128  0.31406148    -0.56270
C158        C  0.60823382  0.94111407  0.38584329     0.76360
O159        O  0.58673631  0.85215671  0.39150503    -0.57430
C160        C  0.63389169  0.87405507  0.30390394     0.76330
C161        C  0.68706346  0.88161748  0.37680119     0.78720
Cd162      Cd  0.62420402  0.88415719  0.36480569     1.37460
O163        O  0.60910367  0.93467206  0.35854841    -0.56270
O164        O  0.67292347  0.90464463  0.36736982    -0.55080
C165        C  0.56613859  0.85931891  0.37261774     0.78680
O166        O  0.67144402  0.85932629  0.38418470    -0.57450
O167        O  0.61527021  0.92056125  0.40455565    -0.55900
O168        O  0.63470456  0.85219078  0.32214395    -0.55890
O169        O  0.57364503  0.87563583  0.35110327    -0.55060
O170        O  0.60718236  0.88371909  0.16650431    -0.56270
C171        C  0.55897176  0.89000769  0.10556061     0.76360
O172        O  0.65619905  0.91948729  0.11943039    -0.57430
C173        C  0.63279563  0.87715355  0.17726678     0.76330
C174        C  0.62591245  0.81362963  0.10840744     0.78720
Cd175      Cd  0.62081663  0.87793896  0.11578971     1.37460
O176        O  0.57148651  0.89226711  0.13082866    -0.56270
O177        O  0.61131080  0.82685977  0.12803623    -0.55080
C178        C  0.64530100  0.93457305  0.09772255     0.78680
O179        O  0.63937126  0.83027767  0.09011561    -0.57450
O180        O  0.57574321  0.88296581  0.08429846    -0.55900
O181        O  0.65390652  0.87307919  0.15931280    -0.55890
O182        O  0.62777587  0.92095145  0.08041703    -0.55060
O183        O  0.38347476  0.87634764  0.16998453    -0.56270
C184        C  0.43116806  0.88837307  0.10664771     0.76360
O185        O  0.34956617  0.82702605  0.09917065    -0.57430
C186        C  0.35820980  0.86870290  0.17888936     0.76330
C187        C  0.34724953  0.93215804  0.09714472     0.78720
Cd188      Cd  0.37132168  0.87505065  0.11842282     1.37470
O189        O  0.42070161  0.88879240  0.13254194    -0.56270
O190        O  0.34837788  0.92499289  0.12440045    -0.55080
C191        C  0.37168483  0.81115045  0.10899697     0.78680
O192        O  0.35242141  0.91116955  0.07894854    -0.57450
O193        O  0.41324696  0.88225739  0.08559054    -0.55900
O194        O  0.33744750  0.86602331  0.15958258    -0.55890
O195        O  0.39288255  0.82548601  0.12013618    -0.55060
O196        O  0.37427415  0.89238823  0.31270673    -0.56270
C197        C  0.37741367  0.93826683  0.38785771     0.76360
O198        O  0.33201341  0.85490330  0.38346856    -0.57430
C199        C  0.36738190  0.86645342  0.30423528     0.76330
C200        C  0.43839624  0.86024915  0.37399282     0.78720
Cd201      Cd  0.37759822  0.88025478  0.36451691     1.37470
O202        O  0.38149237  0.93291516  0.36062825    -0.56270
O203        O  0.42956993  0.87959997  0.35489170    -0.55080
C204        C  0.31538970  0.87605021  0.37251626     0.78680
O205        O  0.41855003  0.84921103  0.39047689    -0.57450
O206        O  0.37654826  0.91614337  0.40573710    -0.55900
O207        O  0.36756781  0.84568843  0.32368969    -0.55890
O208        O  0.32799753  0.89756504  0.36014685    -0.55060
O209        O  0.88530938  0.87587669  0.43035674    -0.56270
C210        C  0.87618581  0.81433104  0.36930484     0.76360
O211        O  0.83219958  0.90074270  0.35595703    -0.57430
C212        C  0.87831846  0.90308645  0.43438918     0.76330
C213        C  0.93754461  0.88708531  0.35486740     0.78720
Cd214      Cd  0.87918355  0.87683373  0.37776006     1.37460
O215        O  0.88283937  0.82553994  0.39427779    -0.56270
O216        O  0.93230590  0.87422182  0.37925918    -0.55080
C217        C  0.81601786  0.88199560  0.36939698     0.78680
O218        O  0.91510569  0.89788956  0.34025241    -0.57450
O219        O  0.87333898  0.83219644  0.34724977    -0.55900
O220        O  0.87396755  0.91970742  0.41164534    -0.55890
O221        O  0.82931687  0.86197637  0.38486700    -0.55060
O222        O  0.93270431  0.63071590  0.38096375    -0.56270
C223        C  0.87065109  0.68641308  0.36948283     0.76360
O224        O  0.85912765  0.59893194  0.32496230    -0.57430
C225        C  0.94165840  0.60526039  0.37224331     0.76330
C226        C  0.86175932  0.60426607  0.42990600     0.78720
Cd227      Cd  0.88157834  0.62344778  0.37121222     1.37470
O228        O  0.89633378  0.67475676  0.37299141    -0.56270
O229        O  0.88805004  0.61124278  0.42400567    -0.55080
C230        C  0.87596502  0.61310607  0.30746202     0.78680
O231        O  0.84352553  0.60411445  0.40786080    -0.57450
O232        O  0.84889813  0.66890004  0.36843202    -0.55900
O233        O  0.92217923  0.58591828  0.36634218    -0.55890
O234        O  0.89364705  0.63090725  0.31963576    -0.55060
O235        O  0.87843346  0.82573324  0.59786615    -0.56270
C236        C  0.87511429  0.90155321  0.55761531     0.76360
O237        O  0.82681605  0.89407994  0.63987422    -0.57430
C238        C  0.87069156  0.81345051  0.62193659     0.76330
C239        C  0.93432635  0.88741289  0.63513832     0.78720
Cd240      Cd  0.87408476  0.87574992  0.61512389     1.37470
O241        O  0.88024498  0.87402773  0.56266996    -0.56270
O242        O  0.92562377  0.86293041  0.62469800    -0.55080
C243        C  0.81058067  0.88023002  0.62107612     0.78680
O244        O  0.91400294  0.90654629  0.64145677    -0.57450
O245        O  0.87142497  0.91844720  0.57973502    -0.55900
O246        O  0.86691545  0.83024763  0.64429099    -0.55890
O247        O  0.82387221  0.86608738  0.60102263    -0.55060
O248        O  0.88975176  0.67428890  0.61282026    -0.56270
C249        C  0.93207198  0.60341352  0.60202610     0.76360
O250        O  0.85059360  0.60839466  0.66341905    -0.57430
C251        C  0.86441299  0.68585848  0.61797909     0.76330
C252        C  0.85025163  0.60662657  0.55710474     0.78720
Cd253      Cd  0.87401454  0.62378084  0.61482559     1.37470
O254        O  0.92371584  0.63059051  0.59935773    -0.56270
O255        O  0.85227751  0.63359316  0.56492288    -0.55080
C256        C  0.87288390  0.61682275  0.67904264     0.78680
O257        O  0.85402733  0.58703672  0.57765066    -0.57450
O258        O  0.91303877  0.58499910  0.61081129    -0.55900
O259        O  0.84252552  0.66857725  0.62026153    -0.55890
O260        O  0.89482383  0.62561693  0.66460240    -0.55060
O261        O  0.07387923  0.63199113  0.37296215    -0.56270
C262        C  0.13805317  0.68804921  0.36518111     0.76360
O263        O  0.15569227  0.59455755  0.40566601    -0.57430
C264        C  0.06707425  0.60558823  0.36616095     0.76330
C265        C  0.13154844  0.62221570  0.30499732     0.78720
Cd266      Cd  0.12585017  0.62645481  0.36799292     1.37460
O267        O  0.11268894  0.67833669  0.37147448    -0.56270
O268        O  0.11378940  0.63977250  0.31789221    -0.55080
C269        C  0.14288814  0.60748624  0.42725163     0.78680
O270        O  0.14823429  0.60516915  0.32153252    -0.57450
O271        O  0.15930997  0.66893927  0.36317482    -0.55900
O272        O  0.08820037  0.58683482  0.36228547    -0.55890
O273        O  0.12574481  0.62949280  0.42082119    -0.55060
O274        O  0.12248920  0.86538296  0.41532871    -0.56270
C275        C  0.13896879  0.81541484  0.35578318     0.76360
O276        O  0.08372371  0.90284259  0.33569642    -0.57430
C277        C  0.11642696  0.89164454  0.42407442     0.76330
C278        C  0.18770897  0.89203073  0.35965086     0.78720
Cd279      Cd  0.12686710  0.87703426  0.36500018     1.37470
O280        O  0.13764845  0.82658627  0.38143474    -0.56270
O281        O  0.17337010  0.89613019  0.38313558    -0.55080
C282        C  0.06519218  0.88423928  0.34579770     0.78680
O283        O  0.17231659  0.88744095  0.33613869    -0.57450
O284        O  0.13477013  0.83302885  0.33375422    -0.55900
O285        O  0.11619105  0.91273659  0.40488887    -0.55890
O286        O  0.07610512  0.86396082  0.36266777    -0.55060
O287        O  0.11009546  0.82711735  0.59352354    -0.56270
C288        C  0.11435188  0.88725698  0.55088449     0.76360
O289        O  0.07915055  0.87716703  0.65009044    -0.57430
C290        C  0.11548504  0.81262145  0.61745211     0.76330
C291        C  0.18516080  0.87953746  0.61956271     0.78720
Cd292      Cd  0.12092358  0.87508277  0.61299896     1.37470
O293        O  0.11235722  0.86143655  0.56221141    -0.56270
O294        O  0.17145798  0.85583229  0.61486044    -0.55080
C295        C  0.06368094  0.89594418  0.63470673     0.78680
O296        O  0.16901113  0.90233305  0.62580470    -0.57450
O297        O  0.11978873  0.90818372  0.56884978    -0.55900
O298        O  0.12124132  0.82765544  0.64062369    -0.55890
O299        O  0.07728735  0.90951458  0.61450975    -0.55060
O300        O  0.09761917  0.67097610  0.60638484    -0.56270
C301        C  0.05698577  0.60148160  0.60038694     0.76360
O302        O  0.15150080  0.59288080  0.57571518    -0.57430
C303        C  0.12220929  0.68390233  0.60864561     0.76330
C304        C  0.11977883  0.61370413  0.67325063     0.78720
Cd305      Cd  0.11565920  0.62129646  0.60965505     1.37470
O306        O  0.06445483  0.62840547  0.59794140    -0.56270
O307        O  0.10514477  0.63419811  0.65976137    -0.55080
C308        C  0.13733826  0.60288510  0.55272303     0.78680
O309        O  0.13473602  0.59587442  0.65699925    -0.57450
O310        O  0.07725583  0.58247566  0.60783424    -0.55900
O311        O  0.14553809  0.66724777  0.61067721    -0.55890
O312        O  0.11649687  0.62158240  0.55711090    -0.55060
O313        O  0.39565117  0.93045957  0.61553188    -0.56270
C314        C  0.37718065  0.87965071  0.67360083     0.76360
O315        O  0.33041917  0.85374229  0.60121496    -0.57430
C316        C  0.39199702  0.93822604  0.58859307     0.76330
C317        C  0.43472738  0.85037937  0.59893375     0.78720
Cd318      Cd  0.37852515  0.88099433  0.61097827     1.37470
O319        O  0.37999940  0.90358712  0.65878272    -0.56270
O320        O  0.42672307  0.85898987  0.62422756    -0.55080
C321        C  0.31444110  0.87702389  0.60629472     0.78680
O322        O  0.41503295  0.85276845  0.57821652    -0.57450
O323        O  0.37525170  0.85561523  0.65896968    -0.55900
O324        O  0.38274132  0.91856855  0.57068646    -0.55890
O325        O  0.32817909  0.90107246  0.60942935    -0.55060
O326        O  0.42685332  0.89535172  0.85708568    -0.56270
C327        C  0.37386368  0.88257575  0.80192579     0.76360
O328        O  0.34838876  0.83205371  0.87260946    -0.57430
C329        C  0.43810270  0.88410023  0.88075897     0.76330
C330        C  0.34989011  0.93532399  0.88406124     0.78720
Cd331      Cd  0.37762374  0.87949363  0.86443910     1.37470
O332        O  0.39747793  0.88823767  0.81636518    -0.56270
O333        O  0.35021597  0.92685575  0.85739567    -0.55080
C334        C  0.36980382  0.81500768  0.86446697     0.78680
O335        O  0.35902814  0.91596448  0.90327623    -0.57450
O336        O  0.35108519  0.87657146  0.81684846    -0.55900
O337        O  0.42041900  0.87386889  0.89978897    -0.55890
O338        O  0.39395720  0.82777807  0.85981255    -0.55060
O339        O  0.38299462  0.10697867  0.66628257    -0.56270
C340        C  0.38886656  0.06332988  0.59283970     0.76360
O341        O  0.32837101  0.14194257  0.59601258    -0.57430
C342        C  0.37558779  0.13213089  0.67682410     0.76330
C343        C  0.43601166  0.14282414  0.59773305     0.78720
Cd344      Cd  0.37849212  0.12122895  0.61539399     1.37470
O345        O  0.39211593  0.06971757  0.62002642    -0.56270
O346        O  0.43202143  0.12318405  0.61750727    -0.55080
C347        C  0.31381091  0.12204267  0.60977285     0.78680
O348        O  0.41264256  0.15543095  0.58627346    -0.57450
O349        O  0.38008977  0.08424624  0.57522898    -0.55900
O350        O  0.37228926  0.15401320  0.65872949    -0.55890
O351        O  0.32946468  0.10276589  0.62403576    -0.55060
O352        O  0.42191200  0.10482678  0.85350993    -0.56270
C353        C  0.36744030  0.12800580  0.80352953     0.76360
O354        O  0.34995287  0.08348359  0.90238323    -0.57430
C355        C  0.43235152  0.10502408  0.87985801     0.76330
C356        C  0.36670141  0.18334097  0.87670205     0.78720
Cd357      Cd  0.37224886  0.11983310  0.86577664     1.37470
O358        O  0.39239397  0.12441219  0.81678950    -0.56270
O359        O  0.38883877  0.16756011  0.88561429    -0.55080
C360        C  0.34622199  0.06325685  0.88309015     0.78680
O361        O  0.34412151  0.16904804  0.86794230    -0.57450
O362        O  0.34427786  0.12704841  0.81911781    -0.55900
O363        O  0.41430440  0.11112845  0.90033259    -0.55890
O364        O  0.35063358  0.07091010  0.85650282    -0.55060
O365        O  0.61540102  0.87862194  0.81045567    -0.56270
C366        C  0.56541240  0.88207408  0.87868007     0.76360
O367        O  0.64679681  0.82651807  0.87859354    -0.57430
C368        C  0.64127656  0.87048983  0.80288905     0.76330
C369        C  0.64319856  0.93594969  0.88040480     0.78720
Cd370      Cd  0.62524473  0.87722271  0.86247751     1.37460
O371        O  0.57472149  0.89041977  0.85360052    -0.56270
O372        O  0.62903420  0.93036758  0.85664732    -0.55080
C373        C  0.62434994  0.81316742  0.86743882     0.78680
O374        O  0.65231199  0.91350486  0.89616509    -0.57450
O375        O  0.58473824  0.87451736  0.89852607    -0.55900
O376        O  0.66139258  0.86801919  0.82304485    -0.55890
O377        O  0.60353386  0.82958473  0.85670498    -0.55060
O378        O  0.60092043  0.92515205  0.62761483    -0.56270
C379        C  0.63109095  0.86337526  0.67842285     0.76360
O380        O  0.58203406  0.84797960  0.58417517    -0.57430
C381        C  0.60158005  0.93441268  0.60096082     0.76330
C382        C  0.68130434  0.87584522  0.60842330     0.78720
Cd383      Cd  0.61798216  0.87522609  0.61804017     1.37470
O384        O  0.62021719  0.88823895  0.66917021    -0.56270
O385        O  0.66599199  0.89782991  0.61739454    -0.55080
C386        C  0.56173220  0.84749630  0.60351455     0.78680
O387        O  0.66659517  0.85321547  0.60001303    -0.57450
O388        O  0.63350103  0.84234835  0.65979373    -0.55900
O389        O  0.60875355  0.91541117  0.58144683    -0.55890
O390        O  0.56903467  0.85660711  0.62909083    -0.55060
O391        O  0.60392170  0.07123565  0.62623261    -0.56270
C392        C  0.62835366  0.13106146  0.67501385     0.76360
O393        O  0.66815294  0.14290418  0.59560535    -0.57430
C394        C  0.60497603  0.06113504  0.60006020     0.76330
C395        C  0.56309476  0.14647251  0.59429163     0.78720
Cd396      Cd  0.62025547  0.12054323  0.61383613     1.37470
O397        O  0.61916595  0.10643667  0.66507571    -0.56270
O398        O  0.57254602  0.14829216  0.62086147    -0.55080
C399        C  0.68403803  0.12029291  0.60429148     0.78680
O400        O  0.58207193  0.13792903  0.57543783    -0.57450
O401        O  0.63165133  0.15226297  0.65645755    -0.55900
O402        O  0.61292852  0.07906220  0.57988946    -0.55890
O403        O  0.66979885  0.09843874  0.61401387    -0.55060
O404        O  0.56673946  0.10855718  0.85016001    -0.56270
C405        C  0.63245918  0.12801844  0.80095134     0.76360
O406        O  0.63907437  0.16903711  0.88028154    -0.57430
C407        C  0.55823784  0.10864360  0.87681499     0.76330
C408        C  0.63955119  0.06319376  0.87979539     0.78720
Cd409      Cd  0.61696431  0.12155814  0.86100842     1.37470
O410        O  0.60604440  0.12411445  0.80900730    -0.56270
O411        O  0.62635013  0.06862617  0.85521909    -0.55080
C412        C  0.61706076  0.18529106  0.87082672     0.78680
O413        O  0.64577517  0.08567698  0.89579389    -0.57450
O414        O  0.65284854  0.12751754  0.82088928    -0.55900
O415        O  0.57738252  0.11504417  0.89673230    -0.55890
O416        O  0.59528770  0.17150842  0.85996216    -0.55060
O417        O  0.32378191  0.61541637  0.88912502    -0.56270
C418        C  0.39922031  0.62212571  0.92776951     0.76360
O419        O  0.40150725  0.58365499  0.83786901    -0.57430
C420        C  0.31006525  0.62756112  0.86714960     0.76330
C421        C  0.37605857  0.68481356  0.85909840     0.78720
Cd422      Cd  0.37304179  0.62116596  0.86996932     1.37460
O423        O  0.37185586  0.61808748  0.92252954    -0.56270
O424        O  0.37906432  0.66725732  0.83709613    -0.55080
C425        C  0.38818026  0.56137748  0.84886890     0.78680
O426        O  0.37609770  0.67256239  0.88445313    -0.57450
O427        O  0.41625412  0.62343072  0.90564015    -0.55900
O428        O  0.32565338  0.63377265  0.84488355    -0.55890
O429        O  0.36786825  0.56739671  0.86696702    -0.55060
O430        O  0.17550749  0.61152312  0.88076933    -0.56270
C431        C  0.11137746  0.55760559  0.86909366     0.76360
O432        O  0.10627880  0.65695648  0.90461678    -0.57430
C433        C  0.18355894  0.63689807  0.87167887     0.76330
C434        C  0.11870590  0.61845866  0.80325614     0.78720
Cd435      Cd  0.12371666  0.61857007  0.86717057     1.37460
O436        O  0.13681849  0.56752943  0.87604513    -0.56270
O437        O  0.13713096  0.60302303  0.81872614    -0.55080
C438        C  0.10331690  0.63676633  0.92440050     0.78680
O439        O  0.10101090  0.63542083  0.81781686    -0.57450
O440        O  0.09048523  0.57650001  0.86298818    -0.55900
O441        O  0.16349605  0.65501581  0.86193517    -0.55890
O442        O  0.10346482  0.61007201  0.91559411    -0.55060
O443        O  0.37265703  0.60913667  0.05645151    -0.56270
C444        C  0.31316004  0.62261068  0.11634737     0.76360
O445        O  0.40752114  0.57996311  0.13941268    -0.57430
C446        C  0.39907913  0.61651739  0.05141529     0.76330
C447        C  0.37738575  0.68059639  0.11676012     0.78720
Cd448      Cd  0.37503732  0.61674910  0.10903545     1.37460
O449        O  0.32419301  0.61248247  0.09262208    -0.56270
O450        O  0.36177796  0.66766729  0.09744764    -0.55080
C451        C  0.38981803  0.55849033  0.13534394     0.78680
O452        O  0.39352048  0.66375358  0.13399833    -0.57450
O453        O  0.33100175  0.62706712  0.13805198    -0.55900
O454        O  0.41613684  0.62089266  0.07360327    -0.55890
O455        O  0.36584156  0.56477868  0.12130660    -0.55060
O456        O  0.17716982  0.61016310  0.11319145    -0.56270
C457        C  0.10847905  0.56404343  0.10586079     0.76360
O458        O  0.10384401  0.64444326  0.16047647    -0.57430
C459        C  0.18684868  0.63630019  0.11561169     0.76330
C460        C  0.11232128  0.63977485  0.05291025     0.78720
Cd461      Cd  0.12572694  0.62320175  0.11376754     1.37470
O462        O  0.13519788  0.57220546  0.10802240    -0.56270
O463        O  0.12357246  0.61530880  0.06233026    -0.55080
C464        C  0.11839401  0.62517321  0.17659174     0.78680
O465        O  0.10380730  0.65821212  0.07270070    -0.57450
O466        O  0.08809741  0.58396957  0.10901607    -0.55900
O467        O  0.16797474  0.65783848  0.11583182    -0.55890
O468        O  0.13390863  0.60598957  0.16317347    -0.55060
O469        O  0.17010481  0.39215847  0.10548144    -0.56270
C470        C  0.10848424  0.43660434  0.10327217     0.76360
O471        O  0.08328209  0.35559321  0.07443149    -0.57430
C472        C  0.18382163  0.37060752  0.11854750     0.76330
C473        C  0.11054199  0.36941420  0.17646417     0.78720
Cd474      Cd  0.12078648  0.37478249  0.11307648     1.37460
O475        O  0.13451507  0.42544110  0.10577777    -0.56270
O476        O  0.10675027  0.39343562  0.16177238    -0.55080
C477        C  0.10305396  0.35074487  0.05516618     0.78680
O478        O  0.11401564  0.34578299  0.16121259    -0.57450
O479        O  0.08714844  0.41861283  0.10494120    -0.55900
O480        O  0.16808384  0.34933543  0.12773652    -0.55890
O481        O  0.12968582  0.35192188  0.06441975    -0.55060
O482        O  0.36246069  0.39178024  0.05771607    -0.56270
C483        C  0.31146793  0.37471142  0.11984663     0.76360
O484        O  0.39027429  0.32750370  0.13138077    -0.57430
C485        C  0.38921546  0.39148748  0.04949133     0.76330
C486        C  0.38986823  0.43154879  0.13717791     0.78720
Cd487      Cd  0.37268363  0.37663566  0.10814367     1.37460
O488        O  0.32108357  0.38627591  0.09620055    -0.56270
O489        O  0.36337786  0.42480453  0.13093789    -0.55080
C490        C  0.38050627  0.31202433  0.10975341     0.78680
O491        O  0.40944945  0.41094912  0.13348727    -0.57450
O492        O  0.33039964  0.36458030  0.13891347    -0.55900
O493        O  0.40900902  0.38451095  0.06897504    -0.55890
O494        O  0.36994395  0.32672430  0.08772626    -0.55060
O495        O  0.36329464  0.39302084  0.91399679    -0.56270
C496        C  0.31107020  0.37703616  0.85943508     0.76360
O497        O  0.41249230  0.41357944  0.85029652    -0.57430
C498        C  0.38983185  0.39119211  0.92398246     0.76330
C499        C  0.38278617  0.31221813  0.86340748     0.78720
Cd500      Cd  0.37388190  0.37693112  0.86472245     1.37460
O501        O  0.32463684  0.38599296  0.88247891    -0.56270
O502        O  0.37886249  0.32737457  0.88651222    -0.55080
C503        C  0.39390504  0.43286294  0.83967735     0.78680
O504        O  0.38598117  0.32731676  0.83954686    -0.57450
O505        O  0.32679851  0.36891869  0.83770545    -0.55900
O506        O  0.40958229  0.38262367  0.90601111    -0.55890
O507        O  0.36795473  0.42364308  0.83447329    -0.55060
O508        O  0.16685753  0.39028904  0.87600962    -0.56270
C509        C  0.10784846  0.42974348  0.87193968     0.76360
O510        O  0.12058029  0.33987741  0.81955001    -0.57430
C511        C  0.18269933  0.36850043  0.86726376     0.76330
C512        C  0.10026484  0.34549028  0.92617139     0.78720
Cd513      Cd  0.11939668  0.36788459  0.86860794     1.37460
O514        O  0.13285467  0.41770976  0.87877866    -0.56270
O515        O  0.12566352  0.33925525  0.91614633    -0.55080
C516        C  0.11167376  0.36262721  0.80433738     0.78680
O517        O  0.08130409  0.35625705  0.90750134    -0.57450
O518        O  0.08637651  0.41259072  0.86647228    -0.55900
O519        O  0.16868703  0.34505018  0.86075141    -0.55890
O520        O  0.10104893  0.38371159  0.81951079    -0.55060
O521        O  0.67280783  0.38473583  0.88211502    -0.56270
C522        C  0.61172697  0.38487437  0.92830362     0.76360
O523        O  0.60751440  0.41688524  0.82548652    -0.57430
C524        C  0.68385413  0.37926850  0.85709461     0.76330
C525        C  0.61487956  0.31585064  0.86174957     0.78720
Cd526      Cd  0.62167108  0.37992381  0.86690002     1.37470
O527        O  0.63343166  0.39663649  0.91547639    -0.56270
O528        O  0.63655550  0.32852743  0.87395237    -0.55080
C529        C  0.59780708  0.43681235  0.84302443     0.78680
O530        O  0.59449716  0.33312551  0.85053950    -0.57450
O531        O  0.59251094  0.37223578  0.91192444    -0.55900
O532        O  0.66588667  0.37705808  0.83517347    -0.55890
O533        O  0.59579739  0.42856792  0.86978885    -0.55060
O534        O  0.86668973  0.43211605  0.88222093    -0.56270
C535        C  0.81124528  0.37479067  0.86098924     0.76360
O536        O  0.88051152  0.35385917  0.81905807    -0.57430
C537        C  0.89393780  0.43878697  0.88168901     0.76330
C538        C  0.89009026  0.35542564  0.92474047     0.78720
Cd539      Cd  0.87330667  0.38139619  0.86729284     1.37460
O540        O  0.82268188  0.40019422  0.86442478    -0.56270
O541        O  0.86433698  0.36562517  0.91819375    -0.55080
C542        C  0.88054328  0.37792405  0.80363851     0.78680
O543        O  0.90833011  0.35348087  0.90349800    -0.57450
O544        O  0.82862695  0.35201723  0.86149833    -0.55900
O545        O  0.91232256  0.41841537  0.87412929    -0.55890
O546        O  0.88157633  0.40198566  0.81802281    -0.55060
O547        O  0.67314757  0.38605044  0.10274101    -0.56270
C548        C  0.61072329  0.38844064  0.05655238     0.76360
O549        O  0.60096362  0.33303591  0.13768797    -0.57430
C550        C  0.68522337  0.37803970  0.12730173     0.76330
C551        C  0.60144556  0.43686324  0.14361642     0.78720
Cd552      Cd  0.62317592  0.38119327  0.11804462     1.37460
O553        O  0.63155958  0.40169317  0.06984258    -0.56270
O554        O  0.62835091  0.42807122  0.14533882    -0.55080
C555        C  0.61941941  0.31701719  0.12319090     0.78680
O556        O  0.58320048  0.41759133  0.13435936    -0.57450
O557        O  0.59258955  0.37461663  0.07253045    -0.55900
O558        O  0.66839435  0.37383291  0.14925388    -0.55890
O559        O  0.63814708  0.33074340  0.10823529    -0.55060
O560        O  0.86626053  0.42899811  0.09304988    -0.56270
C561        C  0.81163186  0.37256598  0.11631450     0.76360
O562        O  0.90832989  0.35126466  0.07326684    -0.57430
C563        C  0.89344458  0.43585631  0.09528449     0.76330
C564        C  0.88262234  0.37404683  0.17185967     0.78720
Cd565      Cd  0.87340544  0.37792161  0.10829595     1.37470
O566        O  0.82304626  0.39752010  0.11031087    -0.56270
O567        O  0.88610865  0.39766336  0.15685782    -0.55080
C568        C  0.88973001  0.35277733  0.05154333     0.78680
O569        O  0.87984364  0.35005834  0.15711861    -0.57450
O570        O  0.82871516  0.34956370  0.11669575    -0.55900
O571        O  0.91187648  0.41528557  0.10335309    -0.55890
O572        O  0.86366097  0.36168226  0.05741271    -0.55060
O573        O  0.82161724  0.60786279  0.87595816    -0.56270
C574        C  0.89385909  0.56372574  0.88293625     0.76360
O575        O  0.89351177  0.64295069  0.82492421    -0.57430
C576        C  0.80965910  0.63297478  0.86928883     0.76330
C577        C  0.88966019  0.64428446  0.93088460     0.78720
Cd578      Cd  0.87173370  0.62274456  0.87276697     1.37470
O579        O  0.86674519  0.57146564  0.88456668    -0.56270
O580        O  0.87030566  0.62485126  0.92606909    -0.55080
C581        C  0.87700388  0.62663807  0.80866522     0.78680
O582        O  0.90038254  0.65693328  0.90807068    -0.57450
O583        O  0.91185604  0.58375468  0.87539239    -0.55900
O584        O  0.82667938  0.65515964  0.86696538    -0.55890
O585        O  0.85997037  0.60933418  0.82210772    -0.55060
O586        O  0.66943940  0.62662997  0.88212962    -0.56270
C587        C  0.60967919  0.61710709  0.92182197     0.76360
O588        O  0.62144142  0.66946522  0.82991387    -0.57430
C589        C  0.68250521  0.62965027  0.85768432     0.76330
C590        C  0.60155810  0.56483641  0.83669989     0.78720
Cd591      Cd  0.62025507  0.62234222  0.86031310     1.37470
O592        O  0.63399323  0.60879931  0.91043315    -0.56270
O593        O  0.62838149  0.57169167  0.84072348    -0.55080
C594        C  0.60933261  0.68531333  0.84975726     0.78680
O595        O  0.58252842  0.58593804  0.84000099    -0.57450
O596        O  0.58876878  0.62550581  0.90412784    -0.55900
O597        O  0.66677160  0.62841221  0.83401233    -0.55890
O598        O  0.59687921  0.67105753  0.87024209    -0.55060
O599        O  0.66829631  0.60663681  0.09328974    -0.56270
C600        C  0.60656415  0.61436796  0.04936185     0.76360
O601        O  0.61557170  0.58147353  0.15050846    -0.57430
C602        C  0.68267412  0.61942492  0.11373567     0.76330
C603        C  0.61310420  0.68435089  0.11168565     0.78720
Cd604      Cd  0.61944244  0.61980980  0.10984563     1.37460
O605        O  0.62950469  0.60233209  0.06172091    -0.56270
O606        O  0.62395855  0.66969132  0.09065807    -0.55080
C607        C  0.59674362  0.56548529  0.13709364     0.78680
O608        O  0.60243332  0.66897692  0.13283762    -0.57450
O609        O  0.58686061  0.62581498  0.06591893    -0.55900
O610        O  0.66725968  0.62904521  0.13502948    -0.55890
O611        O  0.58514248  0.57748971  0.11394121    -0.55060
O612        O  0.82229875  0.60494041  0.10491737    -0.56270
C613        C  0.89361785  0.56049289  0.10097668     0.76360
O614        O  0.90209324  0.65327370  0.07988061    -0.57430
C615        C  0.81019276  0.63032812  0.10890162     0.76330
C616        C  0.87612395  0.61820307  0.17761021     0.78720
Cd617      Cd  0.87195264  0.61869337  0.11303581     1.37470
O618        O  0.86638201  0.56813073  0.09998420    -0.56270
O619        O  0.86086141  0.60035747  0.16243120    -0.55080
C620        C  0.89076541  0.64214580  0.05632833     0.78680
O621        O  0.89113168  0.63701653  0.16293942    -0.57450
O622        O  0.91197849  0.58008409  0.10917957    -0.55900
O623        O  0.82718113  0.65195987  0.11462710    -0.55890
O624        O  0.87078863  0.62319703  0.05988732    -0.55060
C625        C  0.71549804  0.62407642  0.11179656    -0.03790
C626        C  0.73086602  0.64157758  0.13323651    -0.00910
C627        C  0.76166549  0.64625012  0.13079478     0.04080
C628        C  0.77747257  0.63320777  0.10737525    -0.03790
C629        C  0.76210102  0.61802551  0.08475935    -0.00900
C630        C  0.73149153  0.61304114  0.08700229     0.04080
C631        C  0.71556265  0.65475679  0.15819427     0.38730
C632        C  0.77798870  0.60762063  0.05881370     0.38720
C633        C  0.71718317  0.59607298  0.06356213     0.37140
C634        C  0.77724067  0.66375171  0.15295548     0.37140
N635        N  0.70609658  0.58255419  0.04470475    -0.37680
N636        N  0.78958866  0.67781268  0.17057684    -0.37680
N637        N  0.79067547  0.59945962  0.03817117    -0.37120
N638        N  0.70360788  0.66535431  0.17820219    -0.37130
C639        C  0.60693810  0.61844089  0.95441659    -0.03790
C640        C  0.63094654  0.62953214  0.97149040    -0.00910
C641        C  0.62982928  0.62933477  0.00253720     0.04080
C642        C  0.60507207  0.61738418  0.01685632    -0.03790
C643        C  0.58007384  0.60848888  0.00006211    -0.00900
C644        C  0.58089268  0.60922975  0.96872988     0.04080
C645        C  0.65667022  0.64207292  0.95733786     0.38730
C646        C  0.55398083  0.59782873  0.01494273     0.38720
C647        C  0.55524075  0.59986120  0.95147444     0.37140
C648        C  0.65385804  0.64252086  0.01977159     0.37140
N649        N  0.53452952  0.59262488  0.93790752    -0.37680
N650        N  0.67286980  0.65322262  0.03342349    -0.37680
N651        N  0.53312300  0.58939727  0.02681027    -0.37120
N652        N  0.67738924  0.65207113  0.94651807    -0.37130
C653        C  0.89968341  0.64934430  0.96222542    -0.03790
C654        C  0.88996697  0.67477825  0.97807569    -0.00910
C655        C  0.89040759  0.67429698  0.00968790     0.04080
C656        C  0.90058509  0.64839703  0.02545523    -0.03790
C657        C  0.91348429  0.62446731  0.00950485    -0.00900
C658        C  0.91302820  0.62493039  0.97813713     0.04080
C659        C  0.87741490  0.70041059  0.96189884     0.38730
C660        C  0.92534643  0.59823531  0.02542253     0.38720
C661        C  0.92450254  0.59920069  0.96213732     0.37140
C662        C  0.87831009  0.69944001  0.02592965     0.37140
N663        N  0.93359727  0.57864807  0.94943961    -0.37680
N664        N  0.86872510  0.71954226  0.03896048    -0.37680
N665        N  0.93477014  0.57726731  0.03801644    -0.37120
N666        N  0.86745177  0.72089911  0.94892157    -0.37130
C667        C  0.77729398  0.63516147  0.86330599    -0.03790
C668        C  0.76389714  0.61344355  0.84499926    -0.00910
C669        C  0.73277994  0.61265446  0.84191944     0.04080
C670        C  0.71491256  0.63348401  0.85714397    -0.03790
C671        C  0.72825283  0.65646592  0.87375299    -0.00900
C672        C  0.75948234  0.65733193  0.87681460     0.04080
C673        C  0.78208893  0.59171735  0.82927563     0.38730
C674        C  0.70987977  0.67939308  0.88744809     0.38720
C675        C  0.77310516  0.68005487  0.89504953     0.37140
C676        C  0.71916231  0.58937948  0.82432650     0.37140
N677        N  0.78397392  0.69816835  0.90961631    -0.37680
N678        N  0.70831265  0.57081481  0.81033382    -0.37680
N679        N  0.69535072  0.69789112  0.89820480    -0.37120
N680        N  0.79652521  0.57440837  0.81670239    -0.37130
C681        C  0.90232797  0.46704783  0.08998442    -0.03790
C682        C  0.88675844  0.48440458  0.06813832    -0.00910
C683        C  0.88701564  0.51572538  0.06956223     0.04080
C684        C  0.90241219  0.52964594  0.09315559    -0.03790
C685        C  0.92207031  0.51252077  0.11169910    -0.00900
C686        C  0.92243410  0.48106185  0.10970578     0.04080
C687        C  0.86968180  0.47003785  0.04478354     0.38730
C688        C  0.93987360  0.52687034  0.13447445     0.38720
C689        C  0.94227643  0.46340019  0.12904897     0.37140
C690        C  0.87034702  0.53362183  0.04750729     0.37140
N691        N  0.95865376  0.44954790  0.14417202    -0.37680
N692        N  0.85706036  0.54792157  0.02997981    -0.37680
N693        N  0.95405739  0.53827304  0.15268573    -0.37120
N694        N  0.85604951  0.45853991  0.02622119    -0.37130
C695        C  0.59307122  0.46912633  0.14912523    -0.03790
C696        C  0.61040151  0.48626249  0.16896619    -0.00910
C697        C  0.60952571  0.51797236  0.16731648     0.04080
C698        C  0.59105129  0.53325860  0.14577083    -0.03790
C699        C  0.57038632  0.51604058  0.12919986    -0.00900
C700        C  0.57164099  0.48430218  0.13061247     0.04080
C701        C  0.62995798  0.47120364  0.19072549     0.38730
C702        C  0.54839937  0.53062039  0.10952397     0.38720
C703        C  0.55233876  0.46748538  0.11100576     0.37140
C704        C  0.62893400  0.53442811  0.18709156     0.37140
N705        N  0.53698395  0.45419296  0.09524174    -0.37680
N706        N  0.64455463  0.54737179  0.20289262    -0.37680
N707        N  0.53088879  0.54207906  0.09369201    -0.37120
N708        N  0.64555916  0.45924794  0.20809571    -0.37130
C709        C  0.71761784  0.37292142  0.12917396    -0.03790
C710        C  0.73557657  0.39163172  0.14651865    -0.00910
C711        C  0.76667747  0.39048134  0.14334255     0.04080
C712        C  0.77969656  0.37069016  0.12270196    -0.03790
C713        C  0.76187139  0.35010192  0.10740768    -0.00900
C714        C  0.73083568  0.35122147  0.11066260     0.04080
C715        C  0.72197900  0.41298463  0.16649007     0.38730
C716        C  0.77518033  0.32884042  0.08711146     0.38720
C717        C  0.71248557  0.33019121  0.09464493     0.37140
C718        C  0.78530495  0.40950376  0.16144518     0.37140
N719        N  0.69813179  0.31323434  0.08182682    -0.37680
N720        N  0.80022172  0.42453469  0.17596402    -0.37680
N721        N  0.78576282  0.31186925  0.07093386    -0.37120
N722        N  0.71109199  0.43000090  0.18241948    -0.37130
C723        C  0.89828588  0.34932380  0.95658251    -0.03790
C724        C  0.91232470  0.37195377  0.97311945    -0.00910
C725        C  0.91216803  0.37131680  0.00457846     0.04080
C726        C  0.89794256  0.34804906  0.01991623    -0.03790
C727        C  0.88586059  0.32430859  0.00344995    -0.00900
C728        C  0.88604767  0.32493724  0.97192198     0.04080
C729        C  0.92447399  0.39749438  0.95776030     0.38730
C730        C  0.87210772  0.29987534  0.01900071     0.38720
C731        C  0.87244258  0.30117549  0.95514699     0.37140
C732        C  0.92411550  0.39625250  0.02105797     0.37140
N733        N  0.86167785  0.28218146  0.94168453    -0.37680
N734        N  0.93350021  0.41627633  0.03406799    -0.37680
N735        N  0.86121784  0.28032995  0.03146828    -0.37120
N736        N  0.93403529  0.41798815  0.94563721    -0.37130
C737        C  0.90290592  0.46954312  0.88872741    -0.03790
C738        C  0.88785392  0.48517022  0.91120872    -0.00910
C739        C  0.88810854  0.51653053  0.91161248     0.04080
C740        C  0.90288309  0.53228728  0.88912472    -0.03790
C741        C  0.92205628  0.51659866  0.86995915    -0.00900
C742        C  0.92247652  0.48503254  0.87017843     0.04080
C743        C  0.87124738  0.46901192  0.93331207     0.38730
C744        C  0.93928766  0.53264114  0.84833531     0.38720
C745        C  0.94174866  0.46882058  0.85021281     0.37140
C746        C  0.87204679  0.53262068  0.93440735     0.37140
N747        N  0.95765144  0.45606438  0.83461395    -0.37680
N748        N  0.85922879  0.54547325  0.95252543    -0.37680
N749        N  0.95303023  0.54537980  0.83103182    -0.37120
N750        N  0.85798243  0.45608867  0.95086253    -0.37130
C751        C  0.59172762  0.46905323  0.83423957    -0.03790
C752        C  0.60960456  0.48341392  0.81304287    -0.00910
C753        C  0.61082471  0.51508223  0.81186494     0.04080
C754        C  0.59364821  0.53290506  0.83121738    -0.03790
C755        C  0.57286167  0.51870468  0.84948067    -0.00900
C756        C  0.57195378  0.48705397  0.85105311     0.04080
C757        C  0.62827477  0.46585309  0.79357636     0.38730
C758        C  0.55403908  0.53646315  0.86866637     0.38720
C759        C  0.55124446  0.47309092  0.87094508     0.37140
C760        C  0.63060010  0.52938185  0.79128698     0.37140
N761        N  0.53480190  0.46202301  0.88692086    -0.37680
N762        N  0.64638894  0.54077498  0.77487790    -0.37680
N763        N  0.53895148  0.55051106  0.88401030    -0.37120
N764        N  0.64305486  0.45196247  0.77780854    -0.37130
C765        C  0.61031952  0.38488591  0.96111365    -0.03790
C766        C  0.63704935  0.38060920  0.97790532    -0.00910
C767        C  0.63676081  0.38154922  0.00897206     0.04080
C768        C  0.60980552  0.38710057  0.02379385    -0.03790
C769        C  0.58282516  0.39010631  0.00726443    -0.00900
C770        C  0.58306596  0.38900522  0.97589720     0.04080
C771        C  0.66515447  0.37437632  0.96350682     0.38730
C772        C  0.55497808  0.39509533  0.02238430     0.38720
C773        C  0.55542209  0.39307514  0.95897818     0.37140
C774        C  0.66441430  0.37550163  0.02555689     0.37140
N775        N  0.53331816  0.39628766  0.94554659    -0.37680
N776        N  0.68665050  0.37066806  0.03831191    -0.37680
N777        N  0.53272980  0.39901755  0.03441264    -0.37120
N778        N  0.68779935  0.36965481  0.95250865    -0.37130
C779        C  0.71629152  0.37459160  0.85453889    -0.03790
C780        C  0.73151319  0.35510954  0.87498680    -0.00910
C781        C  0.76278302  0.35416840  0.87636868     0.04080
C782        C  0.77887289  0.37217888  0.85684195    -0.03790
C783        C  0.76375624  0.38915334  0.83434233    -0.00900
C784        C  0.73242283  0.39041723  0.83321168     0.04080
C785        C  0.71504149  0.33545666  0.89419288     0.38730
C786        C  0.78051563  0.40510058  0.81223278     0.38720
C787        C  0.71698046  0.40878119  0.81080367     0.37140
C788        C  0.77829139  0.33581613  0.89884329     0.37140
N789        N  0.70485135  0.42338356  0.79273755    -0.37680
N790        N  0.79066428  0.32123889  0.91678979    -0.37680
N791        N  0.79395871  0.41761416  0.79452884    -0.37120
N792        N  0.70206182  0.31943581  0.90926849    -0.37130
C793        C  0.27827095  0.37571225  0.85871251    -0.03790
C794        C  0.26408807  0.34934462  0.84993879    -0.00910
C795        C  0.23303509  0.34689874  0.85252050     0.04080
C796        C  0.21573231  0.37087657  0.86433199    -0.03790
C797        C  0.23031962  0.39766358  0.87252381    -0.00900
C798        C  0.26127736  0.39998017  0.86948203     0.04080
C799        C  0.28157117  0.32392925  0.83962099     0.38730
C800        C  0.21410228  0.42321472  0.88444097     0.38720
C801        C  0.27571042  0.42773850  0.87714650     0.37140
C802        C  0.21946776  0.31927750  0.84314456     0.37140
N803        N  0.28722745  0.44981131  0.88322888    -0.37680
N804        N  0.20898060  0.29711138  0.83563625    -0.37680
N805        N  0.20147741  0.44373354  0.89397770    -0.37120
N806        N  0.29516370  0.30340673  0.83149225    -0.37130
C807        C  0.39655240  0.39775724  0.95558965    -0.03790
C808        C  0.37843982  0.41876511  0.97055679    -0.00910
C809        C  0.37828697  0.41881127  0.00175263     0.04080
C810        C  0.39617771  0.39781056  0.01810006    -0.03790
C811        C  0.41776746  0.38032173  0.00326655    -0.00900
C812        C  0.41819959  0.38059301  0.97194801     0.04080
C813        C  0.35958424  0.44010269  0.95390049     0.38730
C814        C  0.43803254  0.36031582  0.01985332     0.38720
C815        C  0.43994677  0.36203377  0.95686642     0.37140
C816        C  0.35914185  0.44004881  0.01698773     0.37140
N817        N  0.45761097  0.34748127  0.94498026    -0.37680
N818        N  0.34386223  0.45695627  0.02911581    -0.37680
N819        N  0.45424291  0.34432593  0.03298039    -0.37120
N820        N  0.34456547  0.45708510  0.94060588    -0.37130
C821        C  0.09656516  0.34929350  0.02239811    -0.03790
C822        C  0.08782805  0.32291068  0.00784093    -0.00910
C823        C  0.08732459  0.32159246  0.97615462     0.04080
C824        C  0.09569869  0.34660683  0.95899834    -0.03790
C825        C  0.10285692  0.37335008  0.97371593    -0.00900
C826        C  0.10280693  0.37476069  0.00498437     0.04080
C827        C  0.07984013  0.29716204  0.02542512     0.38730
C828        C  0.11168260  0.39939772  0.95675052     0.38720
C829        C  0.10929666  0.40281549  0.01932194     0.37140
C830        C  0.07858361  0.29456098  0.96122485     0.37140
N831        N  0.11405969  0.42544311  0.03043920    -0.37680
N832        N  0.07141514  0.27302548  0.94923262    -0.37680
N833        N  0.11898511  0.42031211  0.94368399    -0.37120
N834        N  0.07326981  0.27665645  0.03953343    -0.37130
C835        C  0.27932005  0.37304965  0.12440711    -0.03790
C836        C  0.26225897  0.39966342  0.12663879    -0.00910
C837        C  0.23103795  0.39865778  0.12632931     0.04080
C838        C  0.21666504  0.37092321  0.12281025    -0.03790
C839        C  0.23402166  0.34405787  0.12234175    -0.00900
C840        C  0.26533981  0.34518455  0.12336369     0.04080
C841        C  0.27696079  0.42817299  0.12907787     0.38730
C842        C  0.21998556  0.31533087  0.11919195     0.38720
C843        C  0.28323193  0.31779007  0.12167665     0.37140
C844        C  0.21395169  0.42633382  0.12997144     0.37140
N845        N  0.29754194  0.29599088  0.12032599    -0.37680
N846        N  0.20049035  0.44847589  0.13287397    -0.37680
N847        N  0.20888788  0.29236248  0.11666273    -0.37120
N848        N  0.28871518  0.45085790  0.13099146    -0.37130
C849        C  0.10266838  0.53234389  0.09964101    -0.03790
C850        C  0.08093299  0.51653105  0.11511142    -0.00910
C851        C  0.08120873  0.48494917  0.11443899     0.04080
C852        C  0.10392656  0.46928957  0.09917378    -0.03790
C853        C  0.12430658  0.48545584  0.08206583    -0.00900
C854        C  0.12258921  0.51675626  0.08113326     0.04080
C855        C  0.05962898  0.53245348  0.13329457     0.38730
C856        C  0.14829070  0.47034132  0.06653756     0.38720
C857        C  0.14199759  0.53298480  0.06148475     0.37140
C858        C  0.05974361  0.46879209  0.13166015     0.37140
N859        N  0.15743220  0.54584333  0.04581880    -0.37680
N860        N  0.04259496  0.45599322  0.14544553    -0.37680
N861        N  0.16781585  0.45867779  0.05447533    -0.37120
N862        N  0.04261870  0.54509166  0.14784136    -0.37130
C863        C  0.39640844  0.52682718  0.14469325    -0.03790
C864        C  0.41970512  0.51035347  0.13134603    -0.00910
C865        C  0.41977173  0.47859069  0.13163681     0.04080
C866        C  0.39665034  0.46308636  0.14565846    -0.03790
C867        C  0.37581005  0.47972455  0.16242071    -0.00900
C868        C  0.37546099  0.51135797  0.16159351     0.04080
C869        C  0.44200575  0.52606250  0.11485682     0.38730
C870        C  0.35377852  0.46427309  0.17956540     0.38720
C871        C  0.35259188  0.52808318  0.17707306     0.37140
C872        C  0.44194456  0.46220086  0.11492254     0.37140
N873        N  0.33432265  0.54138734  0.18942243    -0.37680
N874        N  0.45960919  0.44921375  0.10145465    -0.37680
N875        N  0.33620560  0.45194797  0.19323379    -0.37120
N876        N  0.45976521  0.53866571  0.10170899    -0.37130
C877        C  0.28097393  0.63004438  0.11792583    -0.03790
C878        C  0.26600641  0.64397818  0.09319129    -0.00910
C879        C  0.23508106  0.64944731  0.09374693     0.04080
C880        C  0.21901103  0.64032007  0.11853830    -0.03790
C881        C  0.23406143  0.62892065  0.14415447    -0.00900
C882        C  0.26507807  0.62398119  0.14400019     0.04080
C883        C  0.28230850  0.65304549  0.06720135     0.38730
C884        C  0.21734413  0.62165867  0.17044900     0.38720
C885        C  0.28014028  0.61126611  0.17017283     0.37140
C886        C  0.21963522  0.66366707  0.06852872     0.37140
N887        N  0.29202772  0.60124354  0.19118172    -0.37680
N888        N  0.20741247  0.67530373  0.04852218    -0.37680
N889        N  0.20394072  0.61602606  0.19138502    -0.37120
N890        N  0.29522830  0.66027471  0.04644150    -0.37130
C891        C  0.10590142  0.64236872  0.95690618    -0.03790
C892        C  0.08374074  0.65746111  0.97323597    -0.00910
C893        C  0.08601581  0.65839188  0.00484986     0.04080
C894        C  0.11106816  0.64518462  0.01999034    -0.03790
C895        C  0.13442946  0.63269318  0.00302466    -0.00900
C896        C  0.13113288  0.62989303  0.97212555     0.04080
C897        C  0.05774879  0.67002610  0.95772555     0.38730
C898        C  0.16202185  0.62181967  0.01729908     0.38720
C899        C  0.15319895  0.61222666  0.95631754     0.37140
C900        C  0.06190854  0.67132351  0.02168525     0.37140
N901        N  0.17053858  0.59741711  0.94427991    -0.37680
N902        N  0.04257983  0.68160381  0.03511295    -0.37680
N903        N  0.18394679  0.61287315  0.02844826    -0.37120
N904        N  0.03694815  0.67997709  0.94528274    -0.37130
C905        C  0.10723178  0.52514770  0.86694570    -0.03790
C906        C  0.08381518  0.51094845  0.88158213    -0.00910
C907        C  0.08292408  0.47940915  0.88238624     0.04080
C908        C  0.10530556  0.46239953  0.86834325    -0.03790
C909        C  0.12690300  0.47676008  0.85131938    -0.00900
C910        C  0.12802574  0.50801046  0.85084170     0.04080
C911        C  0.06156252  0.52861180  0.89692831     0.38730
C912        C  0.14785117  0.45934386  0.83386311     0.38720
C913        C  0.15059633  0.52246084  0.83348771     0.37140
C914        C  0.05990862  0.46456125  0.89868146     0.37140
N915        N  0.16871776  0.53373314  0.81966783    -0.37680
N916        N  0.04150756  0.45270149  0.91163867    -0.37680
N917        N  0.16445200  0.44543523  0.81995693    -0.37120
N918        N  0.04374084  0.54270144  0.90910396    -0.37130
C919        C  0.40023054  0.46565051  0.83834656    -0.03790
C920        C  0.39111127  0.48374219  0.81362798    -0.00910
C921        C  0.38990718  0.51548484  0.81589075     0.04080
C922        C  0.39641839  0.52930532  0.84329843    -0.03790
C923        C  0.40656039  0.51123829  0.86757732    -0.00900
C924        C  0.40959715  0.47987958  0.86480096     0.04080
C925        C  0.38238910  0.46962436  0.78606132     0.38730
C926        C  0.41158008  0.52464603  0.89643041     0.38720
C927        C  0.42019792  0.46227591  0.89033799     0.37140
C928        C  0.37993294  0.53376303  0.79069185     0.37140
N929        N  0.42896383  0.44876848  0.91090575    -0.37680
N930        N  0.37200484  0.54839918  0.77056131    -0.37680
N931        N  0.41478765  0.53498677  0.91969691    -0.37120
N932        N  0.37546021  0.45831915  0.76403469    -0.37130
C933        C  0.40919993  0.62683190  0.95869554    -0.03790
C934        C  0.42786588  0.60569917  0.97385086    -0.00910
C935        C  0.42675630  0.60334480  0.00514928     0.04080
C936        C  0.40777471  0.62288220  0.02078345    -0.03790
C937        C  0.39344072  0.64723476  0.00587892    -0.00900
C938        C  0.39421109  0.64921745  0.97485025     0.04080
C939        C  0.44742453  0.58610964  0.95735538     0.38730
C940        C  0.37663277  0.66954494  0.02229262     0.38720
C941        C  0.37863394  0.67382153  0.95950759     0.37140
C942        C  0.44349768  0.57987480  0.02093473     0.37140
N943        N  0.36630447  0.69383147  0.94785043    -0.37680
N944        N  0.45693254  0.56111063  0.03347309    -0.37680
N945        N  0.36320247  0.68758200  0.03495542    -0.37120
N946        N  0.46364995  0.57084739  0.94439841    -0.37130
C947        C  0.27758403  0.63480694  0.86804899    -0.03790
C948        C  0.26029296  0.63875560  0.84147511    -0.00910
C949        C  0.22933521  0.64392562  0.84293935     0.04080
C950        C  0.21536751  0.64350084  0.87060921    -0.03790
C951        C  0.23259983  0.64324549  0.89695844    -0.00900
C952        C  0.26365033  0.63903636  0.89583973     0.04080
C953        C  0.27366504  0.63613953  0.81251236     0.38730
C954        C  0.21844961  0.64883872  0.92510984     0.38720
C955        C  0.28092928  0.63955066  0.92346616     0.37140
C956        C  0.21172595  0.64954592  0.81598847     0.37140
N957        N  0.29457821  0.64009228  0.94554710    -0.37680
N958        N  0.19778134  0.65481434  0.79458943    -0.37680
N959        N  0.20768387  0.65409396  0.94766406    -0.37120
N960        N  0.28413693  0.63401902  0.78931954    -0.37130
C961        C  0.61438348  0.28236424  0.86180682    -0.03790
C962        C  0.64128193  0.26572683  0.85789168    -0.00910
C963        C  0.64253996  0.23437232  0.86244706     0.04080
C964        C  0.61674232  0.21886783  0.87029133    -0.03790
C965        C  0.58964106  0.23545941  0.87354569    -0.00900
C966        C  0.58853318  0.26694845  0.86943239     0.04080
C967        C  0.66768922  0.28070640  0.84795379     0.38730
C968        C  0.56276385  0.22033530  0.88178997     0.38720
C969        C  0.56091412  0.28352978  0.87409036     0.37140
C970        C  0.67031298  0.21804324  0.85771002     0.37140
N971        N  0.53885419  0.29671115  0.87781866    -0.37680
N972        N  0.69250483  0.20511052  0.85393136    -0.37680
N973        N  0.54120995  0.20840980  0.88822218    -0.37120
N974        N  0.68872303  0.29253127  0.83986685    -0.37130
C975        C  0.63514914  0.13415276  0.70700613    -0.03790
C976        C  0.65192536  0.11124887  0.72205235    -0.00910
C977        C  0.65347237  0.11058853  0.75328909     0.04080
C978        C  0.63839089  0.13287585  0.76935681    -0.03790
C979        C  0.62461200  0.15756879  0.75436619    -0.00900
C980        C  0.62302589  0.15828032  0.72310734     0.04080
C981        C  0.66721464  0.08808769  0.70539095     0.38730
C982        C  0.61129503  0.18175512  0.77125511     0.38720
C983        C  0.60723893  0.18275208  0.70776535     0.37140
C984        C  0.66880403  0.08596448  0.76886653     0.37140
N985        N  0.59466802  0.20230261  0.69554082    -0.37680
N986        N  0.68099521  0.06633063  0.78132970    -0.37680
N987        N  0.60080397  0.20102450  0.78482046    -0.37120
N988        N  0.67942212  0.06968692  0.69205224    -0.37130
C989        C  0.59604465  0.96650446  0.59392891    -0.03790
C990        C  0.61400336  0.98140565  0.57330106    -0.00910
C991        C  0.61516445  0.01288240  0.57337884     0.04080
C992        C  0.59829881  0.02944849  0.59403532    -0.03790
C993        C  0.57716167  0.01470832  0.61140694    -0.00900
C994        C  0.57605450  0.98332136  0.61136212     0.04080
C995        C  0.63309319  0.96455795  0.55353960     0.38730
C996        C  0.55684554  0.03172970  0.62982465     0.38720
C997        C  0.55480636  0.96833376  0.62992341     0.37140
C998        C  0.63541376  0.02775784  0.55365981     0.37140
N999        N  0.53794468  0.95640771  0.64480034    -0.37680
N1000       N  0.65154931  0.03949130  0.53783787    -0.37680
N1001       N  0.54068563  0.04525920  0.64455576    -0.37120
N1002       N  0.64832928  0.95125354  0.53770074    -0.37130
C1003       C  0.62176678  0.77999094  0.86517799    -0.03790
C1004       C  0.59422001  0.76664006  0.87121158    -0.00910
C1005       C  0.58944093  0.73632445  0.86429850     0.04080
C1006       C  0.61216089  0.71863973  0.85136166    -0.03790
C1007       C  0.63956985  0.73219885  0.84477295    -0.00900
C1008       C  0.64435377  0.76257604  0.85182940     0.04080
C1009       C  0.57063378  0.78408559  0.88492709     0.38730
C1010       C  0.66332252  0.71493059  0.83120868     0.38720
C1011       C  0.67220095  0.77621644  0.84422250     0.37140
C1012       C  0.56065457  0.72358217  0.86988229     0.37140
N1013       N  0.69440497  0.78709379  0.83811862    -0.37680
N1014       N  0.53766651  0.71347440  0.87427528    -0.37680
N1015       N  0.68233913  0.70135863  0.82026581    -0.37120
N1016       N  0.55181764  0.79798967  0.89581284    -0.37130
C1017       C  0.64573283  0.96778995  0.88946740    -0.03790
C1018       C  0.67205316  0.98381475  0.88511703    -0.00910
C1019       C  0.67115710  0.01564148  0.88486803     0.04080
C1020       C  0.64407235  0.03142507  0.88951234    -0.03790
C1021       C  0.61863443  0.01525624  0.89698974    -0.00900
C1022       C  0.61928676  0.98373023  0.89638947     0.04080
C1023       C  0.69943030  0.96763209  0.87874839     0.38730
C1024       C  0.59106303  0.03112812  0.90369237     0.38720
C1025       C  0.59187985  0.96778400  0.90045084     0.37140
C1026       C  0.69754893  0.03214265  0.87808167     0.37140
N1027       N  0.56981276  0.95535258  0.90321025    -0.37680
N1028       N  0.71861809  0.04539915  0.87272336    -0.37680
N1029       N  0.56898047  0.04342951  0.90930246    -0.37120
N1030       N  0.72131412  0.95467040  0.87372156    -0.37130
C1031       C  0.64663595  0.86346040  0.77168681    -0.03790
C1032       C  0.63172872  0.83918597  0.75876136    -0.00910
C1033       C  0.62896940  0.83725498  0.72766609     0.04080
C1034       C  0.64068636  0.85993197  0.70974402    -0.03790
C1035       C  0.65892870  0.88188346  0.72263743    -0.00900
C1036       C  0.66188283  0.88365451  0.75373272     0.04080
C1037       C  0.61800425  0.81700185  0.77749359     0.38730
C1038       C  0.67408372  0.90302384  0.70387102     0.38720
C1039       C  0.67876883  0.90741120  0.76722826     0.37140
C1040       C  0.61245303  0.81314672  0.71435771     0.37140
N1041       N  0.69224671  0.92634077  0.77803521    -0.37680
N1042       N  0.59944060  0.79373781  0.70384791    -0.37680
N1043       N  0.68622600  0.91976247  0.68883655    -0.37120
N1044       N  0.60699492  0.79920308  0.79223185    -0.37130
C1045       C  0.36890188  0.21669056  0.87412422    -0.03790
C1046       C  0.35997465  0.23172986  0.84737375    -0.00910
C1047       C  0.36672435  0.26225355  0.84268685     0.04080
C1048       C  0.38148172  0.27863301  0.86513300    -0.03790
C1049       C  0.39084624  0.26333029  0.89163790    -0.00900
C1050       C  0.38453679  0.23277130  0.89609222     0.04080
C1051       C  0.34441079  0.21567987  0.82412571     0.38730
C1052       C  0.40784522  0.27871290  0.91432966     0.38720
C1053       C  0.39357599  0.21807842  0.92386429     0.37140
C1054       C  0.35817840  0.27668754  0.81468786     0.37140
N1055       N  0.40072903  0.20648890  0.94607886    -0.37680
N1056       N  0.35146425  0.28802579  0.79222129    -0.37680
N1057       N  0.42144728  0.29070966  0.93257096    -0.37120
N1058       N  0.33187570  0.20300178  0.80558246    -0.37130
C1059       C  0.46456266  0.09997197  0.88559873    -0.03790
C1060       C  0.48017374  0.11845636  0.90559972    -0.00910
C1061       C  0.51143768  0.11951550  0.90468674     0.04080
C1062       C  0.52699642  0.10224278  0.88365114    -0.03790
C1063       C  0.51164895  0.08087814  0.86663094    -0.00900
C1064       C  0.48051093  0.07968305  0.86769458     0.04080
C1065       C  0.46420431  0.13817944  0.92550143     0.38730
C1066       C  0.52779632  0.06038493  0.84757380     0.38720
C1067       C  0.46484254  0.05796669  0.84980233     0.37140
C1068       C  0.52713672  0.14002368  0.92390722     0.37140
N1069       N  0.45236273  0.04068652  0.83551781    -0.37680
N1070       N  0.53956656  0.15633701  0.93934771    -0.37680
N1071       N  0.54065786  0.04407195  0.83237606    -0.37120
N1072       N  0.45160953  0.15393466  0.94145055    -0.37130
C1073       C  0.46710625  0.14847006  0.58831671    -0.03790
C1074       C  0.48209905  0.17443949  0.59712137    -0.00910
C1075       C  0.51369028  0.17511805  0.59664497     0.04080
C1076       C  0.53048810  0.14996750  0.58699849    -0.03790
C1077       C  0.51514281  0.12518652  0.57542102    -0.00900
C1078       C  0.48372659  0.12452674  0.57604302     0.04080
C1079       C  0.46512327  0.19976983  0.60817295     0.38730
C1080       C  0.53160795  0.09893164  0.56546748     0.38720
C1081       C  0.46843331  0.09839819  0.56520104     0.37140
C1082       C  0.52901455  0.20140316  0.60676747     0.37140
N1083       N  0.45629549  0.07760682  0.55642651    -0.37680
N1084       N  0.54129751  0.22243628  0.61471028    -0.37680
N1085       N  0.54446278  0.07780711  0.55760989    -0.37120
N1086       N  0.45150481  0.22005198  0.61684343    -0.37130
C1087       C  0.36988921  0.13467368  0.70883694    -0.03790
C1088       C  0.38394079  0.15648319  0.72624100    -0.00910
C1089       C  0.38207780  0.15513612  0.75744342     0.04080
C1090       C  0.36575926  0.13229698  0.77108810    -0.03790
C1091       C  0.34972602  0.11206344  0.75353769    -0.00900
C1092       C  0.35171690  0.11328744  0.72245678     0.04080
C1093       C  0.40138322  0.17937428  0.71224095     0.38730
C1094       C  0.33271735  0.08872533  0.76744769     0.38720
C1095       C  0.33509541  0.09233023  0.70449090     0.37140
C1096       C  0.39714027  0.17707414  0.77553202     0.37140
N1097       N  0.32183433  0.07560771  0.69024380    -0.37680
N1098       N  0.40910786  0.19459618  0.78996017    -0.37680
N1099       N  0.31925227  0.07003012  0.77848519    -0.37120
N1100       N  0.41522165  0.19770837  0.70107570    -0.37130
C1101       C  0.36776463  0.78180593  0.86004075    -0.03790
C1102       C  0.38529328  0.76735929  0.83812497    -0.00910
C1103       C  0.38778418  0.73572520  0.83707299     0.04080
C1104       C  0.37131944  0.71806216  0.85658140    -0.03790
C1105       C  0.35051212  0.73253446  0.87532687    -0.00900
C1106       C  0.34949570  0.76406405  0.87784012     0.04080
C1107       C  0.39974686  0.78487148  0.81553279     0.38730
C1108       C  0.32905590  0.71505586  0.89122230     0.38720
C1109       C  0.33016958  0.77794999  0.89940943     0.37140
C1110       C  0.40782817  0.72150594  0.81636887     0.37140
N1111       N  0.31474056  0.78891182  0.91669188    -0.37680
N1112       N  0.42384322  0.71021203  0.79982459    -0.37680
N1113       N  0.31163564  0.70131087  0.90367534    -0.37120
N1114       N  0.41085362  0.79854386  0.79701114    -0.37130
C1115       C  0.34174223  0.96731514  0.89104491    -0.03790
C1116       C  0.32107801  0.98342033  0.87238219    -0.00910
C1117       C  0.32025675  0.01509984  0.87201075     0.04080
C1118       C  0.33981387  0.03127296  0.89048425    -0.03790
C1119       C  0.35773200  0.01528775  0.91180586    -0.00900
C1120       C  0.35869837  0.98349893  0.91210794     0.04080
C1121       C  0.30123624  0.96741110  0.85264375     0.38730
C1122       C  0.37746083  0.03138866  0.93157266     0.38720
C1123       C  0.37926900  0.96775435  0.93237965     0.37140
C1124       C  0.29984719  0.03113019  0.85178233     0.37140
N1125       N  0.39575121  0.95531442  0.94858144    -0.37680
N1126       N  0.28352305  0.04387751  0.83565966    -0.37680
N1127       N  0.39328574  0.04417949  0.94729576    -0.37120
N1128       N  0.28545812  0.95465811  0.83684380    -0.37130
C1129       C  0.47064921  0.88029447  0.88357968    -0.03790
C1130       C  0.48698790  0.89092008  0.90824398    -0.00910
C1131       C  0.51844582  0.89013495  0.90788929     0.04080
C1132       C  0.53318500  0.87895784  0.88272822    -0.03790
C1133       C  0.51670249  0.86533686  0.85972382    -0.00900
C1134       C  0.48561722  0.86631428  0.85998426     0.04080
C1135       C  0.47155003  0.90385722  0.93316542     0.38730
C1136       C  0.53169839  0.84974791  0.83581778     0.38720
C1137       C  0.46907410  0.85293077  0.83562568     0.37140
C1138       C  0.53540924  0.90149026  0.93289185     0.37140
N1139       N  0.45615408  0.84243570  0.81599196    -0.37680
N1140       N  0.54887798  0.91040614  0.95299622    -0.37680
N1141       N  0.54353175  0.83726570  0.81681025    -0.37120
N1142       N  0.45927204  0.91416862  0.95311259    -0.37130
C1143       C  0.46650892  0.84045554  0.59463575    -0.03790
C1144       C  0.48286388  0.85134776  0.57038207    -0.00910
C1145       C  0.51449515  0.85064219  0.57156955     0.04080
C1146       C  0.53007432  0.83914141  0.59707007    -0.03790
C1147       C  0.51368164  0.82477707  0.61938311    -0.00900
C1148       C  0.48221919  0.82535255  0.61814501     0.04080
C1149       C  0.46735754  0.86582814  0.54537779     0.38730
C1150       C  0.52915880  0.81027508  0.64441862     0.38720
C1151       C  0.46597097  0.81140853  0.64193917     0.37140
C1152       C  0.53075901  0.86426676  0.54766587     0.37140
N1153       N  0.45303762  0.80040978  0.66098351    -0.37680
N1154       N  0.54367301  0.87517203  0.52855644    -0.37680
N1155       N  0.54133928  0.79872423  0.66448751    -0.37120
N1156       N  0.45502990  0.87744932  0.52542437    -0.37130
C1157       C  0.39685237  0.96960775  0.57986669    -0.03790
C1158       C  0.37448402  0.98600209  0.56377049    -0.00910
C1159       C  0.37335478  0.01750719  0.56538805     0.04080
C1160       C  0.39461432  0.03235763  0.58306865    -0.03790
C1161       C  0.41929009  0.01612498  0.59546664    -0.00900
C1162       C  0.42051961  0.98480913  0.59362151     0.04080
C1163       C  0.35095053  0.97055697  0.54811498     0.38730
C1164       C  0.44265296  0.03145056  0.61161024     0.38720
C1165       C  0.44530429  0.96807740  0.60747479     0.37140
C1166       C  0.34862416  0.03417293  0.55146862     0.37140
N1167       N  0.46497308  0.95473882  0.61862657    -0.37680
N1168       N  0.32884050  0.04742417  0.54042060    -0.37680
N1169       N  0.46118181  0.04360966  0.62463242    -0.37120
N1170       N  0.33214017  0.95828264  0.53563465    -0.37130
C1171       C  0.37620790  0.88013454  0.70647689    -0.03790
C1172       C  0.35874428  0.85953449  0.72213027    -0.00910
C1173       C  0.35785591  0.86034901  0.75336932     0.04080
C1174       C  0.37345268  0.88249745  0.76910074    -0.03790
C1175       C  0.39029323  0.90351958  0.75343028    -0.00900
C1176       C  0.39224943  0.90192286  0.72238314     0.04080
C1177       C  0.34103931  0.83783717  0.70628068     0.38730
C1178       C  0.40530702  0.92731824  0.76909935     0.38720
C1179       C  0.41169654  0.92228164  0.70712853     0.37140
C1180       C  0.34183194  0.83753313  0.76925077     0.37140
N1181       N  0.42723313  0.93849472  0.69504932    -0.37680
N1182       N  0.32918524  0.81925087  0.78188304    -0.37680
N1183       N  0.41725853  0.94630137  0.78152879    -0.37120
N1184       N  0.32684644  0.82054165  0.69374287    -0.37130
C1185       C  0.11888600  0.61181588  0.70645809    -0.03790
C1186       C  0.09274362  0.62112797  0.72137298    -0.00910
C1187       C  0.09269113  0.62360329  0.75267921     0.04080
C1188       C  0.11853180  0.61601455  0.76986799    -0.03790
C1189       C  0.14409972  0.60466795  0.75486960    -0.00900
C1190       C  0.14428161  0.60297372  0.72349892     0.04080
C1191       C  0.06526831  0.62734949  0.70461622     0.38730
C1192       C  0.17084621  0.59484399  0.77117189     0.38720
C1193       C  0.17118462  0.59302050  0.70881581     0.37140
C1194       C  0.06545752  0.63306033  0.76702015     0.37140
N1195       N  0.19267996  0.58506168  0.69723704    -0.37680
N1196       N  0.04364910  0.64058047  0.77829811    -0.37680
N1197       N  0.19236623  0.58671531  0.78365622    -0.37120
N1198       N  0.04335358  0.63224257  0.69130060    -0.37130
C1199       C  0.28138739  0.87692778  0.60987126    -0.03790
C1200       C  0.26280236  0.86186434  0.58968272    -0.00910
C1201       C  0.23151640  0.86341142  0.59260276     0.04080
C1202       C  0.21827415  0.87972603  0.61614271    -0.03790
C1203       C  0.23688624  0.89479649  0.63633824    -0.00900
C1204       C  0.26819757  0.89325192  0.63338681     0.04080
C1205       C  0.27576084  0.84556056  0.56521245     0.38730
C1206       C  0.22395602  0.91110212  0.66080509     0.38720
C1207       C  0.28689843  0.90755035  0.65550379     0.37140
C1208       C  0.21294370  0.84905316  0.57040268     0.37140
N1209       N  0.30180693  0.91886588  0.67318575    -0.37680
N1210       N  0.19814943  0.83764858  0.55268294    -0.37680
N1211       N  0.21367561  0.92412929  0.68034139    -0.37120
N1212       N  0.28605162  0.83254105  0.54567630    -0.37130
C1213       C  0.11634233  0.77953831  0.61730065    -0.03790
C1214       C  0.09611233  0.76439398  0.59878024    -0.00910
C1215       C  0.10011687  0.73366751  0.59372723     0.04080
C1216       C  0.12247752  0.71699599  0.60967270    -0.03790
C1217       C  0.14207264  0.73188937  0.62921330    -0.00900
C1218       C  0.13943663  0.76319738  0.63249193     0.04080
C1219       C  0.07002326  0.78001137  0.58619905     0.38730
C1220       C  0.16438163  0.71510069  0.64667539     0.39420
C1221       C  0.16091231  0.77850109  0.65106150     0.37140
C1222       C  0.08148172  0.71947418  0.57142797     0.37140
N1223       N  0.17806795  0.79066495  0.66586639    -0.37680
N1224       N  0.06676529  0.70821401  0.55354972    -0.37680
N1225       N  0.18213551  0.70178419  0.66072203    -0.37120
N1226       N  0.04883009  0.79215294  0.57669558    -0.37130
C1227       C  0.10988359  0.89619092  0.45561519    -0.03790
C1228       C  0.09289088  0.87454078  0.46992236    -0.00910
C1229       C  0.09430556  0.87157729  0.50090941     0.04080
C1230       C  0.11067438  0.89216707  0.51823601    -0.03790
C1231       C  0.12444658  0.91645092  0.50374674    -0.00900
C1232       C  0.12425315  0.91823132  0.47240259     0.04080
C1233       C  0.07433248  0.85467103  0.45248941     0.38730
C1234       C  0.14080753  0.93841723  0.52060702     0.38720
C1235       C  0.14013874  0.94177267  0.45755426     0.37140
C1236       C  0.07994652  0.84610176  0.51412256     0.37140
N1237       N  0.15268389  0.96071360  0.44582328    -0.37680
N1238       N  0.06866087  0.82524497  0.52375988    -0.37680
N1239       N  0.15394261  0.95599660  0.53389311    -0.37120
N1240       N  0.05956071  0.83895260  0.43857776    -0.37130
C1241       C  0.13126327  0.62217708  0.27196777    -0.03790
C1242       C  0.12523340  0.59579534  0.25629673    -0.00910
C1243       C  0.11935004  0.59706436  0.22533211     0.04080
C1244       C  0.11928979  0.62483496  0.20969689    -0.03790
C1245       C  0.12549947  0.65118697  0.22543320    -0.00900
C1246       C  0.13193735  0.64977035  0.25626925     0.04080
C1247       C  0.12427642  0.56741283  0.27213576     0.38730
C1248       C  0.12662650  0.67965919  0.20976218     0.38720
C1249       C  0.14093042  0.67660958  0.27158061     0.37140
C1250       C  0.11279274  0.56967051  0.20965554     0.37140
N1251       N  0.14866262  0.69801444  0.28343156    -0.37680
N1252       N  0.10766498  0.54782378  0.19713971    -0.37680
N1253       N  0.12748503  0.70240423  0.19732312    -0.37120
N1254       N  0.12357886  0.54475750  0.28475654    -0.37130
C1255       C  0.14476689  0.59689695  0.45872411    -0.03790
C1256       C  0.17130463  0.59813711  0.47605372    -0.00910
C1257       C  0.17010229  0.59685933  0.50761182     0.04080
C1258       C  0.14250228  0.59335734  0.52156899    -0.03790
C1259       C  0.11710833  0.58715800  0.50389362    -0.00900
C1260       C  0.11787218  0.59025125  0.47283972     0.04080
C1261       C  0.19927332  0.60305614  0.46160972     0.38730
C1262       C  0.08956938  0.57888002  0.51785610     0.38720
C1263       C  0.09017170  0.58922079  0.45573741     0.37140
C1264       C  0.19672624  0.60097067  0.52559998     0.37140
N1265       N  0.06783337  0.58924524  0.44251370    -0.37680
N1266       N  0.21802456  0.60409998  0.54001351    -0.37680
N1267       N  0.06767437  0.57200950  0.52885081    -0.37120
N1268       N  0.22164554  0.60683935  0.45003228    -0.37130
C1269       C  0.14173643  0.72028411  0.35914148    -0.03790
C1270       C  0.16513302  0.73609710  0.37260708    -0.00910
C1271       C  0.16570058  0.76750100  0.36964139     0.04080
C1272       C  0.14348675  0.78289486  0.35243225    -0.03790
C1273       C  0.12260489  0.76669717  0.33580338    -0.00900
C1274       C  0.12094865  0.73562023  0.34003732     0.04080
C1275       C  0.18755015  0.72041714  0.39086477     0.38730
C1276       C  0.10219614  0.78200350  0.31499531     0.38720
C1277       C  0.09748761  0.71966847  0.32481289     0.37140
C1278       C  0.18915858  0.78407974  0.38416548     0.37140
N1279       N  0.07860629  0.70737441  0.31251080    -0.37680
N1280       N  0.20790290  0.79740223  0.39556762    -0.37680
N1281       N  0.08623660  0.79404078  0.29800105    -0.37120
N1282       N  0.20549452  0.70790650  0.40537874    -0.37130
C1283       C  0.87368765  0.61814256  0.71250556    -0.03790
C1284       C  0.90125129  0.61510575  0.72861335    -0.00910
C1285       C  0.90269709  0.61950413  0.75976010     0.04080
C1286       C  0.87675974  0.62682428  0.77543076    -0.03790
C1287       C  0.84938890  0.63037918  0.75948184    -0.00900
C1288       C  0.84780364  0.62600369  0.72835506     0.04080
C1289       C  0.92835800  0.60677105  0.71346077     0.38730
C1290       C  0.82283834  0.63979775  0.77502559     0.38720
C1291       C  0.81956877  0.63088837  0.71264985     0.37140
C1292       C  0.93083466  0.61551282  0.77586785     0.37140
N1293       N  0.79699978  0.63485148  0.70021460    -0.37680
N1294       N  0.95329057  0.61236147  0.78869712    -0.37680
N1295       N  0.80168878  0.64762699  0.78726444    -0.37120
N1296       N  0.95012461  0.60028817  0.70155647    -0.37130
C1297       C  0.96315729  0.59455677  0.59602015    -0.03790
C1298       C  0.97956409  0.57571582  0.61610688    -0.00910
C1299       C  0.01092223  0.57541203  0.61584096     0.04080
C1300       C  0.02559310  0.59377182  0.59534304    -0.03790
C1301       C  0.00900620  0.60896252  0.57254751    -0.00900
C1302       C  0.97783031  0.60908050  0.57274606     0.04080
C1303       C  0.96448343  0.55850258  0.63850458     0.38730
C1304       C  0.02390503  0.62589193  0.54972573     0.38720
C1305       C  0.96082230  0.62509854  0.54955523     0.37140
C1306       C  0.02781311  0.55856209  0.63846124     0.37140
N1307       N  0.94724437  0.63787071  0.53111949    -0.37680
N1308       N  0.04123353  0.54515702  0.65656885    -0.37680
N1309       N  0.03571465  0.63957387  0.53165998    -0.37120
N1310       N  0.95250938  0.54462366  0.65630330    -0.37130
C1311       C  0.77745588  0.87980438  0.62120292    -0.03790
C1312       C  0.76306661  0.85199251  0.62181396    -0.00910
C1313       C  0.73202368  0.85041628  0.61638815     0.04080
C1314       C  0.71476073  0.87674502  0.61006884    -0.03790
C1315       C  0.72944565  0.90466050  0.60934324    -0.00900
C1316       C  0.76047360  0.90609884  0.61511864     0.04080
C1317       C  0.78024802  0.82479506  0.62870452     0.38730
C1318       C  0.71299617  0.93211977  0.60176774     0.38720
C1319       C  0.77518931  0.93461410  0.61364905     0.37140
C1320       C  0.71797427  0.82158211  0.61830473     0.37140
N1321       N  0.78695168  0.95734203  0.61249868    -0.37680
N1322       N  0.70691055  0.79850938  0.61986307    -0.37680
N1323       N  0.70001800  0.95410975  0.59578118    -0.37120
N1324       N  0.79375913  0.80305023  0.63436773    -0.37130
C1325       C  0.96700159  0.89343629  0.63577134    -0.03790
C1326       C  0.98311750  0.88715041  0.60977796    -0.00910
C1327       C  0.01429757  0.88919425  0.60972608     0.04080
C1328       C  0.03034875  0.89752121  0.63559499    -0.03790
C1329       C  0.01434044  0.90500644  0.66133450    -0.00900
C1330       C  0.98267178  0.90337303  0.66130530     0.04080
C1331       C  0.96759473  0.87847214  0.58259907     0.38730
C1332       C  0.03040179  0.91479673  0.68754837     0.38720
C1333       C  0.96638276  0.91111756  0.68765666     0.37140
C1334       C  0.02991402  0.88135795  0.58292167     0.37140
N1335       N  0.95334298  0.91745911  0.70868080    -0.37680
N1336       N  0.04201023  0.87519557  0.56134109    -0.37680
N1337       N  0.04327952  0.92277688  0.70843149    -0.37120
N1338       N  0.95533187  0.87138542  0.56101165    -0.37130
C1339       C  0.86559564  0.78093005  0.62310305    -0.03790
C1340       C  0.85055490  0.76719560  0.59901567    -0.00910
C1341       C  0.84845932  0.73588747  0.59819464     0.04080
C1342       C  0.86119987  0.71832478  0.62141555    -0.03790
C1343       C  0.87415359  0.73196405  0.64650394    -0.00900
C1344       C  0.87631472  0.76330248  0.64742947     0.04080
C1345       C  0.83696681  0.78520293  0.57511112     0.38730
C1346       C  0.88565781  0.71358991  0.67114511     0.38720
C1347       C  0.89091963  0.77708758  0.67268743     0.37140
C1348       C  0.83436948  0.72162855  0.57288059     0.37140
N1349       N  0.90255653  0.78803868  0.69287419    -0.37680
N1350       N  0.82317598  0.71020754  0.55271436    -0.37680
N1351       N  0.89469912  0.69887313  0.69078485    -0.37120
N1352       N  0.82609479  0.79956154  0.55609501    -0.37130
C1353       C  0.87601097  0.61633069  0.21090701    -0.03790
C1354       C  0.90297689  0.61495294  0.22750206    -0.00910
C1355       C  0.90278924  0.61095143  0.25874074     0.04080
C1356       C  0.87560774  0.61040273  0.27423243    -0.03790
C1357       C  0.84864267  0.61082418  0.25759162    -0.00900
C1358       C  0.84886502  0.61301847  0.22613392     0.04080
C1359       C  0.93110585  0.61617143  0.21232462     0.38730
C1360       C  0.82053536  0.60984799  0.27277936     0.38720
C1361       C  0.82088386  0.61209096  0.20957621     0.37140
C1362       C  0.93074424  0.60508045  0.27460320     0.37140
N1363       N  0.79847250  0.61080404  0.19658698    -0.37680
N1364       N  0.95319487  0.59950499  0.28666551    -0.37680
N1365       N  0.79807987  0.60907973  0.28486086    -0.37120
N1366       N  0.95355262  0.61714262  0.20024533    -0.37130
C1367       C  0.85357886  0.59816346  0.46159959    -0.03790
C1368       C  0.82909909  0.61330227  0.47451752    -0.00910
C1369       C  0.82635959  0.61404234  0.50590875     0.04080
C1370       C  0.84759404  0.59906989  0.52476153    -0.03790
C1371       C  0.87041307  0.58160961  0.51168115    -0.00900
C1372       C  0.87342094  0.58126375  0.48042178     0.04080
C1373       C  0.80790076  0.63001709  0.45573596     0.38730
C1374       C  0.89269231  0.56618652  0.53039837     0.38720
C1375       C  0.89783180  0.56425603  0.46769031     0.37140
C1376       C  0.80220337  0.63113522  0.51892181     0.37140
N1377       N  0.91739786  0.55073785  0.45766670    -0.37680
N1378       N  0.78292469  0.64477554  0.52932982    -0.37680
N1379       N  0.91060911  0.55396674  0.54518891    -0.37120
N1380       N  0.79092073  0.64331737  0.44075821    -0.37130
C1381       C  0.97343902  0.60032547  0.36640510    -0.03790
C1382       C  0.98743790  0.62126491  0.34796592    -0.00910
C1383       C  0.01818008  0.61938582  0.34433811     0.04080
C1384       C  0.03550370  0.59875528  0.36146227    -0.03790
C1385       C  0.02156988  0.57574285  0.37726795    -0.00900
C1386       C  0.99022120  0.57630311  0.37939898     0.04080
C1387       C  0.97047060  0.64539509  0.33318274     0.38730
C1388       C  0.03930506  0.55224316  0.39191904     0.38720
C1389       C  0.97559481  0.55336373  0.39628717     0.37140
C1390       C  0.03210609  0.63857057  0.32269594     0.37140
N1391       N  0.96406211  0.53483520  0.40964242    -0.37680
N1392       N  0.04297074  0.65339081  0.30492293    -0.37680
N1393       N  0.05335736  0.53332067  0.40353773    -0.37120
N1394       N  0.95719732  0.66475600  0.32141284    -0.37130
C1395       C  0.96879930  0.88700507  0.34432933    -0.03790
C1396       C  0.98470555  0.85941337  0.34434878    -0.00910
C1397       C  0.01590686  0.85852772  0.34218516     0.04080
C1398       C  0.03206441  0.88541640  0.33999285    -0.03790
C1399       C  0.01577631  0.91292847  0.33693591    -0.00900
C1400       C  0.98422140  0.91367170  0.33915608     0.04080
C1401       C  0.96899824  0.83159471  0.34823720     0.38730
C1402       C  0.03139191  0.94073361  0.33379647     0.38720
C1403       C  0.96790589  0.94202623  0.33834284     0.37140
C1404       C  0.03114056  0.82951621  0.34405148     0.37140
N1405       N  0.95487830  0.96467976  0.33770119    -0.37680
N1406       N  0.04268264  0.80616838  0.34633223    -0.37680
N1407       N  0.04377762  0.96300195  0.33129950    -0.37120
N1408       N  0.95670827  0.80941171  0.35171769    -0.37130
C1409       C  0.87315892  0.91339826  0.46468650    -0.03790
C1410       C  0.84765907  0.90314724  0.47896875    -0.00910
C1411       C  0.84695156  0.90249452  0.51009391     0.04080
C1412       C  0.87170013  0.91221350  0.52680980    -0.03790
C1413       C  0.89536880  0.92622267  0.51257274    -0.00900
C1414       C  0.89610534  0.92679883  0.48125313     0.04080
C1415       C  0.82319834  0.89098148  0.46166206     0.38730
C1416       C  0.91990260  0.93775186  0.53007244     0.38720
C1417       C  0.92133295  0.93902355  0.46615337     0.37140
C1418       C  0.82172530  0.88971341  0.52492534     0.37140
N1419       N  0.94141063  0.94885889  0.45403704    -0.37680
N1420       N  0.80160338  0.87944387  0.53661036    -0.37680
N1421       N  0.93944590  0.94698627  0.54409207    -0.37120
N1422       N  0.80369921  0.88119313  0.44798352    -0.37130
C1423       C  0.87107521  0.78188350  0.36667630    -0.03790
C1424       C  0.85452472  0.76707854  0.38863751    -0.00910
C1425       C  0.85263102  0.73569052  0.38855312     0.04080
C1426       C  0.86703496  0.71910336  0.36644043    -0.03790
C1427       C  0.88104319  0.73399321  0.34291426    -0.00900
C1428       C  0.88300224  0.76538209  0.34293875     0.04080
C1429       C  0.83901735  0.78412611  0.41111591     0.38730
C1430       C  0.89336712  0.71693595  0.31859043     0.38720
C1431       C  0.89824352  0.78037335  0.31911670     0.37140
C1432       C  0.83702224  0.72039653  0.41193462     0.37140
N1433       N  0.91032759  0.79223228  0.30000021    -0.37680
N1434       N  0.82456271  0.70821513  0.43058645    -0.37680
N1435       N  0.90294892  0.70344562  0.29900960    -0.37120
N1436       N  0.82655123  0.79774572  0.42893759    -0.37130
C1437       C  0.28247343  0.87672689  0.37258541    -0.03790
C1438       C  0.26655236  0.85987315  0.35154377    -0.00910
C1439       C  0.23585840  0.86579650  0.34613894     0.04080
C1440       C  0.22090510  0.88930781  0.36122467    -0.03790
C1441       C  0.23717406  0.90633483  0.38210643    -0.00900
C1442       C  0.26762344  0.89982292  0.38795023     0.04080
C1443       C  0.28208575  0.83710415  0.33461858     0.38730
C1444       C  0.22288749  0.93119530  0.39716367     0.38720
C1445       C  0.28394717  0.91717799  0.40969241     0.37140
C1446       C  0.21965151  0.84682600  0.32578147     0.37140
N1447       N  0.29700103  0.93095089  0.42703181    -0.37680
N1448       N  0.20681056  0.83156861  0.30959406    -0.37680
N1449       N  0.21167432  0.95112179  0.40917893    -0.37120
N1450       N  0.29453179  0.81904997  0.32104713    -0.37130
C1451       C  0.37299154  0.77747546  0.10946137    -0.03790
C1452       C  0.40098410  0.76178663  0.11102936    -0.00910
C1453       C  0.40253411  0.73037302  0.11541811     0.04080
C1454       C  0.37630597  0.71396822  0.11769337    -0.03790
C1455       C  0.34842392  0.72943186  0.11616319    -0.00900
C1456       C  0.34672877  0.76084341  0.11199063     0.04080
C1457       C  0.42851026  0.77761417  0.10720410     0.38730
C1458       C  0.32119552  0.71312150  0.11994287     0.38720
C1459       C  0.31774607  0.77588214  0.11118904     0.37140
C1460       C  0.43122624  0.71477124  0.11647970     0.37140
N1461       N  0.29454847  0.78770841  0.11051791    -0.37680
N1462       N  0.45410705  0.70232801  0.11738505    -0.37680
N1463       N  0.29930644  0.70049885  0.12318941    -0.37120
N1464       N  0.45050838  0.79014785  0.10420069    -0.37130
C1465       C  0.35414665  0.86273741  0.21065899    -0.03790
C1466       C  0.33555695  0.88159771  0.22734035    -0.00910
C1467       C  0.33816923  0.88102818  0.25854251     0.04080
C1468       C  0.35921154  0.86144240  0.27285406    -0.03790
C1469       C  0.37447238  0.83959861  0.25628314    -0.00900
C1470       C  0.37233374  0.84059180  0.22506572     0.04080
C1471       C  0.31528257  0.90284801  0.21242383     0.38730
C1472       C  0.39331862  0.81703639  0.27110712     0.38720
C1473       C  0.38958244  0.81949270  0.20765381     0.37140
C1474       C  0.31942450  0.90074421  0.27597102     0.37140
N1475       N  0.40331683  0.80273132  0.19370459    -0.37680
N1476       N  0.30437230  0.91631003  0.28991642    -0.37680
N1477       N  0.40808806  0.79872759  0.28282174    -0.37120
N1478       N  0.29907345  0.91974784  0.20048942    -0.37130
C1479       C  0.61485700  0.71774789  0.11117732    -0.03790
C1480       C  0.61104491  0.73384641  0.08388455    -0.00910
C1481       C  0.61642441  0.76491010  0.08235001     0.04080
C1482       C  0.62597363  0.78025592  0.10790692    -0.03790
C1483       C  0.63086459  0.76400687  0.13484649    -0.00900
C1484       C  0.62493762  0.73311938  0.13660245     0.04080
C1485       C  0.60097135  0.71862060  0.05729115     0.38730
C1486       C  0.64335223  0.77887115  0.16062053     0.38720
C1487       C  0.63055401  0.71698474  0.16437474     0.37140
C1488       C  0.61118708  0.78124647  0.05464935     0.37140
N1489       N  0.63503759  0.70416535  0.18655211    -0.37680
N1490       N  0.60703563  0.79426470  0.03253207    -0.37680
N1491       N  0.65369401  0.79052771  0.18109210    -0.37120
N1492       N  0.59308454  0.70643385  0.03606617    -0.37130
C1493       C  0.52615633  0.89419396  0.10178990    -0.03790
C1494       C  0.51009813  0.91212337  0.12207002    -0.00910
C1495       C  0.47883477  0.91217253  0.12180968     0.04080
C1496       C  0.46318050  0.89365525  0.10195134    -0.03790
C1497       C  0.47892401  0.87791659  0.07987717    -0.00900
C1498       C  0.51028516  0.87826895  0.07970871     0.04080
C1499       C  0.52536118  0.93021251  0.14395578     0.38730
C1500       C  0.46322469  0.85978837  0.05832191     0.38720
C1501       C  0.52592948  0.86047305  0.05787900     0.37140
C1502       C  0.46282741  0.93132163  0.14231443     0.37140
N1503       N  0.53822374  0.84623320  0.04040484    -0.37680
N1504       N  0.45013896  0.94653387  0.15869509    -0.37680
N1505       N  0.45082797  0.84533011  0.04106718    -0.37120
N1506       N  0.53687352  0.94455559  0.16189139    -0.37130
C1507       C  0.72035340  0.88105184  0.37686600    -0.03790
C1508       C  0.73618306  0.90758680  0.38268655    -0.00910
C1509       C  0.76723583  0.90848711  0.37852083     0.04080
C1510       C  0.78294212  0.88292849  0.36865576    -0.03790
C1511       C  0.76731208  0.85639639  0.36295859    -0.00900
C1512       C  0.73623770  0.85546986  0.36689670     0.04080
C1513       C  0.72077095  0.93400981  0.39366570     0.38730
C1514       C  0.78322248  0.83002297  0.35243313     0.38720
C1515       C  0.72059074  0.82846099  0.35932940     0.37140
C1516       C  0.78326789  0.93535172  0.38579841     0.37140
N1517       N  0.70818020  0.80690645  0.35319435    -0.37680
N1518       N  0.79608765  0.95672726  0.39168202    -0.37680
N1519       N  0.79590768  0.80901838  0.34403638    -0.37120
N1520       N  0.70867895  0.95523831  0.40232436    -0.37130
C1521       C  0.53416484  0.85084402  0.37495010    -0.03790
C1522       C  0.51906140  0.85249424  0.40227003    -0.00910
C1523       C  0.48742265  0.85287674  0.40260163     0.04080
C1524       C  0.47072857  0.85165635  0.37567043    -0.03790
C1525       C  0.48591113  0.84705658  0.34884787    -0.00900
C1526       C  0.51723403  0.84654720  0.34847603     0.04080
C1527       C  0.53577686  0.85647648  0.42977559     0.38730
C1528       C  0.46929541  0.84451309  0.32097557     0.38720
C1529       C  0.53176850  0.84334455  0.32013307     0.37140
C1530       C  0.47214707  0.85718600  0.43033953     0.37140
N1531       N  0.54271281  0.84132612  0.29718060    -0.37680
N1532       N  0.45994644  0.86069450  0.45247787    -0.37680
N1533       N  0.45637636  0.84295856  0.29856244    -0.37120
N1534       N  0.54905228  0.85972569  0.45177380    -0.37130
C1535       C  0.63714941  0.87330399  0.20949740    -0.03790
C1536       C  0.65616053  0.89219011  0.22548184    -0.00910
C1537       C  0.65673963  0.89103237  0.25674678     0.04080
C1538       C  0.63893736  0.87038416  0.27188041    -0.03790
C1539       C  0.62294602  0.84899993  0.25568500    -0.00900
C1540       C  0.62098262  0.85129701  0.22454569     0.04080
C1541       C  0.67363676  0.91399489  0.20987450     0.38730
C1542       C  0.60805378  0.82501850  0.27089283     0.38720
C1543       C  0.60158030  0.83156261  0.20808807     0.37140
C1544       C  0.67575435  0.91096219  0.27338858     0.37140
N1545       N  0.58590001  0.81597060  0.19507159    -0.37680
N1546       N  0.69097594  0.92674264  0.28672057    -0.37680
N1547       N  0.59670725  0.80541836  0.28283641    -0.37120
N1548       N  0.68755266  0.93137854  0.19738575    -0.37130
C1549       C  0.60027152  0.97193535  0.39432024    -0.03790
C1550       C  0.61912415  0.98792634  0.41354563    -0.00910
C1551       C  0.61894133  0.01943700  0.41191399     0.04080
C1552       C  0.59948262  0.03459966  0.39137683    -0.03790
C1553       C  0.57711271  0.01859033  0.37634967    -0.00900
C1554       C  0.57752183  0.98724972  0.37786736     0.04080
C1555       C  0.64025648  0.97209224  0.43317361     0.38730
C1556       C  0.55439101  0.03420715  0.35830415     0.38720
C1557       C  0.55545428  0.97061653  0.36124511     0.37140
C1558       C  0.64056449  0.03574726  0.42935527     0.37140
N1559       N  0.53795412  0.95730566  0.34796339    -0.37680
N1560       N  0.65786131  0.04866849  0.44329693    -0.37680
N1561       N  0.53634257  0.04665607  0.34386255    -0.37120
N1562       N  0.65696619  0.95952346  0.44904455    -0.37130
C1563       C  0.62592057  0.22198237  0.10771050    -0.03790
C1564       C  0.59940311  0.23848668  0.10004248    -0.00910
C1565       C  0.59628503  0.26909062  0.10732671     0.04080
C1566       C  0.61968754  0.28377836  0.12197862    -0.03790
C1567       C  0.64617592  0.26746178  0.12958223    -0.00900
C1568       C  0.64927196  0.23676059  0.12259055     0.04080
C1569       C  0.57542229  0.22422082  0.08384552     0.38730
C1570       C  0.67017453  0.28228458  0.14518218     0.38720
C1571       C  0.67605046  0.22020071  0.13191481     0.37140
C1572       C  0.56938529  0.28581818  0.09862695     0.37140
N1573       N  0.69741042  0.20701499  0.13943615    -0.37680
N1574       N  0.54793870  0.29917115  0.09169111    -0.37680
N1575       N  0.68925916  0.29411260  0.15769169    -0.37120
N1576       N  0.55630286  0.21286985  0.07092388    -0.37130
C1577       C  0.64659876  0.03170415  0.09713471    -0.03790
C1578       C  0.66347575  0.01571062  0.07605051    -0.00910
C1579       C  0.66347296  0.98381990  0.07577775     0.04080
C1580       C  0.64724334  0.96786821  0.09706730    -0.03790
C1581       C  0.63067731  0.98395409  0.11819903    -0.00900
C1582       C  0.62952560  0.01543899  0.11762666     0.04080
C1583       C  0.68135183  0.03197043  0.05525563     0.38730
C1584       C  0.61440885  0.96796690  0.14071027     0.38720
C1585       C  0.60918390  0.03099929  0.13726124     0.37140
C1586       C  0.68073795  0.96743035  0.05426560     0.37140
N1587       N  0.59272404  0.04325785  0.15270274    -0.37680
N1588       N  0.69462045  0.95430797  0.03713316    -0.37680
N1589       N  0.60185396  0.95517742  0.15886980    -0.37120
N1590       N  0.69574076  0.04500706  0.03873932    -0.37130
C1591       C  0.63203349  0.12937458  0.20584747    -0.03790
C1592       C  0.62657347  0.15688078  0.21998202    -0.00910
C1593       C  0.62288838  0.15757044  0.25100119     0.04080
C1594       C  0.62432902  0.13056454  0.26778810    -0.03790
C1595       C  0.63115732  0.10319668  0.25339450    -0.00900
C1596       C  0.63534114  0.10279361  0.22258664     0.04080
C1597       C  0.62345726  0.18423937  0.20239188     0.38730
C1598       C  0.63391855  0.07518138  0.26996881     0.38720
C1599       C  0.64320072  0.07494716  0.20797274     0.37140
C1600       C  0.61600042  0.18586307  0.26514343     0.37140
N1601       N  0.64976855  0.05280164  0.19643170    -0.37680
N1602       N  0.61049517  0.20848384  0.27632357    -0.37680
N1603       N  0.63595095  0.05271638  0.28296074    -0.37120
N1604       N  0.62092530  0.20602937  0.18835682    -0.37130
C1605       C  0.37957689  0.27841750  0.11005462    -0.03790
C1606       C  0.38241661  0.26213276  0.08326184    -0.00910
C1607       C  0.37793736  0.23084098  0.08270289     0.04080
C1608       C  0.37085401  0.21510610  0.10895934    -0.03790
C1609       C  0.36832874  0.23137751  0.13579533    -0.00900
C1610       C  0.37248009  0.26268077  0.13628869     0.04080
C1611       C  0.39096173  0.27733194  0.05618759     0.38730
C1612       C  0.36100528  0.21612000  0.16321231     0.38720
C1613       C  0.36821085  0.27875857  0.16380849     0.37140
C1614       C  0.38210768  0.21471336  0.05520983     0.37140
N1615       N  0.36472852  0.29150607  0.18577784    -0.37680
N1616       N  0.38551013  0.20192035  0.03325291    -0.37680
N1617       N  0.35542057  0.20424188  0.18529878    -0.37120
N1618       N  0.39779127  0.28938923  0.03457775    -0.37130
C1619       C  0.34388945  0.96436787  0.08793234    -0.03790
C1620       C  0.32257306  0.98339736  0.10135897    -0.00910
C1621       C  0.32511510  0.01496295  0.09976023     0.04080
C1622       C  0.34931420  0.02783774  0.08504291    -0.03790
C1623       C  0.36877885  0.00881946  0.06907548    -0.00900
C1624       C  0.36613970  0.97736074  0.07051400     0.04080
C1625       C  0.29860155  0.97039839  0.11783343     0.38730
C1626       C  0.39252429  0.02152642  0.05203406     0.38720
C1627       C  0.38835262  0.95844502  0.05643654     0.37140
C1628       C  0.30415881  0.03394169  0.11536676     0.37140
N1629       N  0.40622317  0.94348205  0.04533276    -0.37680
N1630       N  0.28740986  0.04907214  0.12783050    -0.37680
N1631       N  0.41157684  0.03140934  0.03842040    -0.37120
N1632       N  0.27945925  0.96000205  0.13095579    -0.37130
C1633       C  0.46860879  0.12634519  0.08648311    -0.03790
C1634       C  0.48441984  0.11000585  0.06504048    -0.00910
C1635       C  0.51583359  0.10965474  0.06591091     0.04080
C1636       C  0.53092125  0.12594272  0.08802498    -0.03790
C1637       C  0.51487173  0.14550036  0.10661557    -0.00900
C1638       C  0.48374515  0.14573144  0.10576840     0.04080
C1639       C  0.46854955  0.09272581  0.04305451     0.38730
C1640       C  0.53033940  0.16494947  0.12719507     0.38720
C1641       C  0.46718319  0.16542412  0.12532775     0.37140
C1642       C  0.53246145  0.09115245  0.04549315     0.37140
N1643       N  0.45398252  0.18112990  0.14084895    -0.37680
N1644       N  0.54574527  0.07639395  0.02918126    -0.37680
N1645       N  0.54253710  0.18043895  0.14365674    -0.37120
N1646       N  0.45605978  0.07921130  0.02511898    -0.37130
C1647       C  0.46517860  0.14786936  0.38820336    -0.03790
C1648       C  0.47847470  0.17575285  0.38297514    -0.00910
C1649       C  0.51003506  0.17780306  0.38300990     0.04080
C1650       C  0.52838169  0.15251691  0.39021139    -0.03790
C1651       C  0.51482934  0.12578301  0.39910081    -0.00900
C1652       C  0.48368645  0.12304198  0.39672823     0.04080
C1653       C  0.45985172  0.20171431  0.37547117     0.38730
C1654       C  0.53295646  0.10015746  0.40902181     0.38720
C1655       C  0.47100254  0.09375567  0.40082948     0.37140
C1656       C  0.52372755  0.20568618  0.37508306     0.37140
N1657       N  0.46123830  0.07016026  0.40317247    -0.37680
N1658       N  0.53474619  0.22796992  0.36885809    -0.37680
N1659       N  0.54676379  0.07952284  0.41751445    -0.37120
N1660       N  0.44494810  0.22249791  0.36962516    -0.37130
C1661       C  0.37170399  0.96925263  0.39705464    -0.03790
C1662       C  0.39189425  0.98423426  0.41576478    -0.00910
C1663       C  0.39038405  0.01579189  0.41721072     0.04080
C1664       C  0.36935118  0.03179264  0.39917298    -0.03790
C1665       C  0.34646015  0.01647356  0.38439877    -0.00900
C1666       C  0.34766141  0.98522487  0.38323900     0.04080
C1667       C  0.41547778  0.96750634  0.43142822     0.38730
C1668       C  0.32256856  0.03303873  0.36878456     0.38720
C1669       C  0.32499169  0.96985468  0.36620187     0.37140
C1670       C  0.41095630  0.03162048  0.43619309     0.37140
N1671       N  0.30657365  0.95841493  0.35237347    -0.37680
N1672       N  0.42707751  0.04397953  0.45196447    -0.37680
N1673       N  0.30363001  0.04617114  0.35620356    -0.37120
N1674       N  0.43433813  0.95411452  0.44385887    -0.37130
C1675       C  0.36921537  0.11410892  0.27008241    -0.03790
C1676       C  0.39000344  0.09502809  0.25605444    -0.00910
C1677       C  0.38915093  0.09196855  0.22495405     0.04080
C1678       C  0.36789043  0.10848216  0.20740438    -0.03790
C1679       C  0.34614886  0.12644444  0.22162141    -0.00900
C1680       C  0.34695021  0.12933562  0.25281125     0.04080
C1681       C  0.41325448  0.07943535  0.27343889     0.38730
C1682       C  0.32326709  0.14268036  0.20437051     0.38720
C1683       C  0.32443717  0.14765498  0.26707268     0.37140
C1684       C  0.41005738  0.07135028  0.21118766     0.37140
N1685       N  0.30634295  0.16230450  0.27818111    -0.37680
N1686       N  0.42672180  0.05488602  0.20027989    -0.37680
N1687       N  0.30488875  0.15557934  0.19074862    -0.37120
N1688       N  0.43182144  0.06705990  0.28727038    -0.37130
C1689       C  0.86699466  0.38705459  0.70805279    -0.03790
C1690       C  0.88934757  0.40314296  0.72303950    -0.00910
C1691       C  0.89488620  0.39875981  0.75379711     0.04080
C1692       C  0.87744316  0.37898147  0.77044131    -0.03790
C1693       C  0.85384220  0.36419229  0.75576340    -0.00900
C1694       C  0.84864274  0.36824901  0.72474445     0.04080
C1695       C  0.90629023  0.42494702  0.70677994     0.38730
C1696       C  0.83424587  0.34549135  0.77268202     0.38720
C1697       C  0.82458091  0.35282129  0.70998849     0.37140
C1698       C  0.91940667  0.41396672  0.76799983     0.37140
N1699       N  0.80522077  0.34066777  0.69826624    -0.37680
N1700       N  0.93922886  0.42605521  0.77892580    -0.37680
N1701       N  0.81855703  0.33062940  0.78618749    -0.37120
N1702       N  0.91962910  0.44247285  0.69383765    -0.37130
C1703       C  0.78085059  0.11546999  0.61471717    -0.03790
C1704       C  0.76460642  0.08933028  0.60968664    -0.00910
C1705       C  0.73337604  0.09110112  0.60461386     0.04080
C1706       C  0.71761685  0.11913561  0.60516034    -0.03790
C1707       C  0.73406705  0.14531772  0.61024167    -0.00900
C1708       C  0.76533970  0.14348531  0.61485151     0.04080
C1709       C  0.78019759  0.06058068  0.60843665     0.38730
C1710       C  0.71893391  0.17428431  0.61175653     0.38720
C1711       C  0.78155518  0.17067274  0.62043313     0.37140
C1712       C  0.71777632  0.06382187  0.59790367     0.37140
N1713       N  0.79447960  0.19233966  0.62482442    -0.37680
N1714       N  0.70546445  0.04199711  0.59257176    -0.37680
N1715       N  0.70699796  0.19745952  0.61299662    -0.37120
N1716       N  0.79260440  0.03763613  0.60742367    -0.37130
C1717       C  0.87820450  0.21404787  0.61376827    -0.03790
C1718       C  0.88534610  0.23047988  0.58768099    -0.00910
C1719       C  0.88137754  0.26176148  0.58660424     0.04080
C1720       C  0.87298759  0.27749795  0.61213911    -0.03790
C1721       C  0.86654711  0.26164244  0.63835455    -0.00900
C1722       C  0.86831657  0.23009344  0.63902579     0.04080
C1723       C  0.89748707  0.21592623  0.56169658     0.38730
C1724       C  0.85924831  0.27778553  0.66517230     0.38720
C1725       C  0.85997275  0.21467773  0.66604327     0.37140
C1726       C  0.88457502  0.27751148  0.55850880     0.37140
N1727       N  0.85314233  0.20262122  0.68765452    -0.37680
N1728       N  0.88664817  0.28923074  0.53563518    -0.37680
N1729       N  0.85370333  0.29040611  0.68676093    -0.37120
N1730       N  0.90744456  0.20476907  0.54090486    -0.37130
C1731       C  0.77744219  0.11662262  0.36496485    -0.03790
C1732       C  0.75912518  0.10245746  0.34368127    -0.00910
C1733       C  0.72771644  0.10508562  0.34505163     0.04080
C1734       C  0.71379619  0.12203283  0.36767446    -0.03790
C1735       C  0.73186386  0.13571773  0.38926373    -0.00900
C1736       C  0.76327228  0.13252664  0.38843956     0.04080
C1737       C  0.77234645  0.08404037  0.32082746     0.38730
C1738       C  0.71810732  0.15239781  0.41309110     0.38720
C1739       C  0.78047559  0.14549104  0.41250121     0.37140
C1740       C  0.70985859  0.09064185  0.32240819     0.37140
N1741       N  0.79369391  0.15578692  0.43206504    -0.37680
N1742       N  0.69602828  0.07885485  0.30421375    -0.37680
N1743       N  0.70718825  0.16574745  0.43206901    -0.37120
N1744       N  0.78275449  0.06918700  0.30265738    -0.37130
C1745       C  0.88469031  0.10661733  0.45479347    -0.03790
C1746       C  0.87433832  0.13141582  0.47132276    -0.00910
C1747       C  0.87244561  0.12914782  0.50223185     0.04080
C1748       C  0.88301276  0.10304076  0.51724845    -0.03790
C1749       C  0.89158390  0.07760190  0.50099054    -0.00900
C1750       C  0.89160394  0.07910963  0.46961776     0.04080
C1751       C  0.86438655  0.15916572  0.45669299     0.38730
C1752       C  0.90074013  0.05016985  0.51644402     0.38720
C1753       C  0.89860040  0.05235143  0.45296059     0.37140
C1754       C  0.85787041  0.15317144  0.51847914     0.37140
N1755       N  0.90369964  0.03060241  0.44007412    -0.37680
N1756       N  0.84578084  0.17205253  0.53127217    -0.37680
N1757       N  0.90801706  0.02823094  0.52871220    -0.37120
N1758       N  0.85661654  0.18139188  0.44524564    -0.37130
C1759       C  0.86886927  0.38685202  0.26603998    -0.03790
C1760       C  0.84998694  0.36805081  0.24961234    -0.00910
C1761       C  0.85492794  0.36301905  0.21901365     0.04080
C1762       C  0.87958269  0.37581920  0.20484807    -0.03790
C1763       C  0.89827143  0.39472644  0.22148147    -0.00900
C1764       C  0.89226759  0.40104799  0.25145297     0.04080
C1765       C  0.82599873  0.35319302  0.26442439     0.38730
C1766       C  0.92479930  0.40647764  0.20836190     0.38720
C1767       C  0.91009079  0.42256949  0.26740052     0.37140
C1768       C  0.83409134  0.34531878  0.20204433     0.37140
N1769       N  0.92409955  0.43993629  0.28004427    -0.37680
N1770       N  0.81733156  0.33129533  0.18855634    -0.37680
N1771       N  0.94639010  0.41551827  0.19844094    -0.37120
N1772       N  0.80687444  0.34134615  0.27629537    -0.37130
C1773       C  0.85907799  0.38730203  0.45713679    -0.03790
C1774       C  0.87802117  0.36971954  0.47667753    -0.00910
C1775       C  0.87678981  0.37312188  0.50768305     0.04080
C1776       C  0.85480633  0.39159292  0.52045445    -0.03790
C1777       C  0.83538411  0.40871616  0.50168156    -0.00900
C1778       C  0.83774470  0.40700465  0.47017032     0.04080
C1779       C  0.89861692  0.34705696  0.46561560     0.38730
C1780       C  0.81319988  0.42819567  0.51484155     0.38720
C1781       C  0.81821638  0.42570713  0.45149073     0.37140
C1782       C  0.89935197  0.35827269  0.52662447     0.37140
N1783       N  0.80255565  0.44074781  0.43670208    -0.37680
N1784       N  0.91779117  0.34684107  0.54136899    -0.37680
N1785       N  0.79551746  0.44378372  0.52541075    -0.37120
N1786       N  0.91499329  0.32883479  0.45712758    -0.37130
C1787       C  0.86554569  0.28097516  0.34981123    -0.03790
C1788       C  0.84171714  0.26500221  0.36166496    -0.00910
C1789       C  0.84148756  0.23363561  0.35938476     0.04080
C1790       C  0.86514901  0.21823800  0.34568387    -0.03790
C1791       C  0.88744604  0.23424557  0.33147754    -0.00900
C1792       C  0.88753915  0.26564455  0.33329069     0.04080
C1793       C  0.81831691  0.28044308  0.37763847     0.38730
C1794       C  0.91094192  0.21829705  0.31609533     0.38720
C1795       C  0.91024902  0.28211701  0.31805242     0.37140
C1796       C  0.81692850  0.21715576  0.37123056     0.37140
N1797       N  0.92828223  0.29529396  0.30585306    -0.37680
N1798       N  0.79696112  0.20433920  0.38035400    -0.37680
N1799       N  0.92964306  0.20552807  0.30383142    -0.37120
N1800       N  0.79962157  0.29268303  0.39040060    -0.37130
C1801       C  0.12897326  0.37824228  0.70964413    -0.03790
C1802       C  0.14205911  0.35319905  0.72493456    -0.00910
C1803       C  0.13553135  0.34727106  0.75520632     0.04080
C1804       C  0.11572443  0.36631888  0.77103034    -0.03790
C1805       C  0.10312312  0.39176146  0.75557029    -0.00900
C1806       C  0.11035294  0.39797760  0.72567659     0.04080
C1807       C  0.16194755  0.33291277  0.70945770     0.38730
C1808       C  0.08214835  0.41187666  0.76991436     0.38720
C1809       C  0.09907827  0.42550899  0.71162196     0.37140
C1810       C  0.14961158  0.32138701  0.76979446     0.37140
N1811       N  0.09014733  0.44748670  0.70049578    -0.37680
N1812       N  0.16092235  0.30062455  0.78117993    -0.37680
N1813       N  0.06542798  0.42805884  0.78113753    -0.37120
N1814       N  0.17784491  0.31668180  0.69721717    -0.37130
C1815       C  0.96707867  0.39777707  0.60676344    -0.03790
C1816       C  0.98364163  0.39453679  0.63358308    -0.00910
C1817       C  0.01480224  0.39553986  0.63333170     0.04080
C1818       C  0.02943605  0.39884195  0.60614110    -0.03790
C1819       C  0.01291208  0.40367523  0.57951201    -0.00900
C1820       C  0.98157394  0.40353313  0.57988162     0.04080
C1821       C  0.96888684  0.38785785  0.66118598     0.38730
C1822       C  0.02822083  0.40731791  0.55169272     0.38720
C1823       C  0.96435450  0.40777431  0.55250103     0.37140
C1824       C  0.03179332  0.39086961  0.66085750     0.37140
N1825       N  0.95069660  0.41128944  0.53060922    -0.37680
N1826       N  0.04488148  0.38696166  0.68302156    -0.37680
N1827       N  0.04051952  0.41013642  0.52953033    -0.37120
N1828       N  0.95767470  0.38204965  0.68335754    -0.37130
C1829       C  0.21696030  0.11906052  0.61770909    -0.03790
C1830       C  0.23101452  0.14638124  0.61099385    -0.00910
C1831       C  0.26227100  0.14736332  0.60754489     0.04080
C1832       C  0.28022713  0.12099263  0.61059179    -0.03790
C1833       C  0.26593713  0.09355977  0.61698898    -0.00900
C1834       C  0.23473933  0.09276532  0.62090334     0.04080
C1835       C  0.21334200  0.17394820  0.60823165     0.38730
C1836       C  0.28296267  0.06554355  0.61845107     0.38720
C1837       C  0.22079422  0.06444719  0.62694448     0.37140
C1838       C  0.27578144  0.17588831  0.60149644     0.37140
N1839       N  0.20970684  0.04184969  0.63177869    -0.37680
N1840       N  0.28639702  0.19872080  0.59663160    -0.37680
N1841       N  0.29643464  0.04314956  0.61959941    -0.37120
N1842       N  0.19928005  0.19591743  0.60596946    -0.37130
C1843       C  0.03144510  0.09653258  0.64519199    -0.03790
C1844       C  0.01502544  0.11863070  0.66051397    -0.00910
C1845       C  0.98363819  0.11745022  0.66197957     0.04080
C1846       C  0.96781494  0.09458400  0.64706599    -0.03790
C1847       C  0.98477040  0.07043436  0.63502878    -0.00900
C1848       C  0.01633934  0.07146210  0.63416740     0.04080
C1849       C  0.03046950  0.14344820  0.67395042     0.38730
C1850       C  0.97001654  0.04503444  0.62204571     0.38720
C1851       C  0.03303356  0.04778700  0.61968886     0.37140
C1852       C  0.96790136  0.14069547  0.67811356     0.37140
N1853       N  0.04632186  0.02887424  0.60812836    -0.37680
N1854       N  0.95553453  0.15936972  0.69095180    -0.37680
N1855       N  0.95838363  0.02470105  0.61162399    -0.37120
N1856       N  0.04273688  0.16330537  0.68454140    -0.37130
C1857       C  0.11951966  0.21474907  0.61629037    -0.03790
C1858       C  0.11545333  0.23076343  0.64295269    -0.00910
C1859       C  0.11688204  0.26221750  0.64279202     0.04080
C1860       C  0.12277382  0.27763811  0.61620331    -0.03790
C1861       C  0.12732203  0.26189289  0.58975036    -0.00900
C1862       C  0.12585501  0.23053867  0.58971506     0.04080
C1863       C  0.10884933  0.21519799  0.67039783     0.38730
C1864       C  0.13333457  0.27810379  0.56244515     0.38720
C1865       C  0.13168719  0.21476127  0.56229574     0.37140
C1866       C  0.11124367  0.27881923  0.66973696     0.37140
N1867       N  0.13627102  0.20238681  0.54032534    -0.37680
N1868       N  0.10645072  0.29195032  0.69121966    -0.37680
N1869       N  0.13805553  0.29105589  0.54071169    -0.37120
N1870       N  0.10368982  0.20289728  0.69238444    -0.37130
C1871       C  0.11287715  0.37003398  0.20982959    -0.03790
C1872       C  0.13029276  0.39205006  0.22400203    -0.00910
C1873       C  0.13232818  0.39372569  0.25544234     0.04080
C1874       C  0.11717959  0.37318016  0.27361353    -0.03790
C1875       C  0.10053742  0.35038743  0.25909416    -0.00900
C1876       C  0.09843611  0.34901727  0.22761779     0.04080
C1877       C  0.14713354  0.41268950  0.20616939     0.38730
C1878       C  0.08529741  0.32785633  0.27609665     0.38720
C1879       C  0.08047473  0.32641251  0.21349101     0.37140
C1880       C  0.14990692  0.41710299  0.26872672     0.37140
N1881       N  0.06609989  0.30842177  0.20223768    -0.37680
N1882       N  0.16401172  0.43581704  0.27910064    -0.37680
N1883       N  0.07299413  0.30981403  0.28941195    -0.37120
N1884       N  0.16061509  0.42909654  0.19199092    -0.37130
C1885       C  0.14819135  0.40214957  0.46013643    -0.03790
C1886       C  0.16708803  0.38047231  0.47437381    -0.00910
C1887       C  0.16926078  0.37890789  0.50583643     0.04080
C1888       C  0.15250698  0.39896904  0.52354036    -0.03790
C1889       C  0.13619946  0.42267308  0.50914285    -0.00900
C1890       C  0.13404151  0.42415527  0.47766991     0.04080
C1891       C  0.18211524  0.35792213  0.45677593     0.38730
C1892       C  0.11925590  0.44400892  0.52649590     0.38720
C1893       C  0.11611706  0.44770989  0.46322451     0.37140
C1894       C  0.18779048  0.35564877  0.52000235     0.37140
N1895       N  0.10190913  0.46657029  0.45170264    -0.37680
N1896       N  0.20252577  0.33703839  0.53127671    -0.37680
N1897       N  0.10562114  0.46100939  0.54026438    -0.37120
N1898       N  0.19398014  0.33986195  0.44272180    -0.37130
C1899       C  0.02621418  0.41694123  0.36292830    -0.03790
C1900       C  0.00895459  0.42821699  0.38627647    -0.00910
C1901       C  0.97766589  0.42658743  0.38453812     0.04080
C1902       C  0.96413065  0.41239500  0.36006663    -0.03790
C1903       C  0.98135370  0.40363151  0.33561809    -0.00900
C1904       C  0.01226344  0.40716414  0.33659745     0.04080
C1905       C  0.02349960  0.43932776  0.41286269     0.38730
C1906       C  0.96791234  0.38805152  0.31074875     0.38720
C1907       C  0.02999937  0.39800748  0.31150278     0.37140
C1908       C  0.95976812  0.43650087  0.40918094     0.37140
N1909       N  0.04379845  0.39086266  0.29123093    -0.37680
N1910       N  0.94545140  0.44437423  0.42884026    -0.37680
N1911       N  0.95781389  0.37500297  0.29103180    -0.37120
N1912       N  0.03504472  0.44818104  0.43413654    -0.37130
C1913       C  0.21431191  0.12039370  0.36055912    -0.03790
C1914       C  0.23125525  0.10183921  0.38085211    -0.00910
C1915       C  0.26167037  0.10745686  0.38736302     0.04080
C1916       C  0.27657005  0.13119220  0.37302882    -0.03790
C1917       C  0.25938913  0.15046141  0.35382368    -0.00900
C1918       C  0.22900030  0.14483917  0.34719122     0.04080
C1919       C  0.21771328  0.07668651  0.39566438     0.38730
C1920       C  0.27244314  0.17717842  0.34156251     0.38720
C1921       C  0.21323853  0.16461259  0.32617970     0.37140
C1922       C  0.27717025  0.08868316  0.40952515     0.37140
N1923       N  0.20105720  0.18059068  0.30931242    -0.37680
N1924       N  0.28921997  0.07367454  0.42735529    -0.37680
N1925       N  0.28258375  0.19869105  0.33197058    -0.37120
N1926       N  0.20720772  0.05656647  0.40757415    -0.37130
C1927       C  0.02711303  0.09625009  0.33968500    -0.03790
C1928       C  0.01231755  0.10719641  0.31360273    -0.00910
C1929       C  0.98070676  0.10721319  0.31131450     0.04080
C1930       C  0.96369378  0.09544801  0.33465448    -0.03790
C1931       C  0.97878925  0.08180706  0.35927880    -0.00900
C1932       C  0.01012469  0.08242661  0.36187774     0.04080
C1933       C  0.02936876  0.12056592  0.29017641     0.38730
C1934       C  0.96204507  0.07009666  0.38382542     0.38720
C1935       C  0.02471672  0.07047581  0.38864240     0.37140
C1936       C  0.96556630  0.12044224  0.28547810     0.37140
N1937       N  0.03601231  0.06127637  0.41028251    -0.37680
N1938       N  0.95343929  0.13099784  0.26485253    -0.37680
N1939       N  0.94896026  0.06096585  0.40367693    -0.37120
N1940       N  0.04300210  0.13119234  0.27143640    -0.37130
C1941       C  0.12781565  0.09089558  0.45817554    -0.03790
C1942       C  0.11176230  0.06865406  0.47294362    -0.00910
C1943       C  0.11055819  0.06880967  0.50428810     0.04080
C1944       C  0.12619511  0.09060706  0.52028517    -0.03790
C1945       C  0.14623998  0.10919914  0.50554447    -0.00900
C1946       C  0.14697356  0.10939384  0.47450332     0.04080
C1947       C  0.09598973  0.04637043  0.45610743     0.38730
C1948       C  0.16544711  0.12900004  0.52217646     0.38720
C1949       C  0.16671107  0.12946758  0.45920717     0.37140
C1950       C  0.09191588  0.04804359  0.51981462     0.37140
N1951       N  0.18233239  0.14543675  0.44692505    -0.37680
N1952       N  0.07705823  0.03144473  0.53223774    -0.37680
N1953       N  0.18102171  0.14488056  0.53495032    -0.37120
N1954       N  0.08390203  0.02797041  0.44296324    -0.37130
C1955       C  0.11798937  0.21906817  0.37371692    -0.03790
C1956       C  0.12726150  0.23630925  0.34906442    -0.00910
C1957       C  0.12971073  0.26755273  0.35141993     0.04080
C1958       C  0.12210943  0.28201051  0.37801553    -0.03790
C1959       C  0.11350638  0.26509123  0.40278511    -0.00900
C1960       C  0.11155110  0.23376146  0.40080385     0.04080
C1961       C  0.13437839  0.22229778  0.32103895     0.38730
C1962       C  0.10727180  0.27998326  0.43060038     0.38720
C1963       C  0.10204476  0.21709192  0.42664542     0.37140
C1964       C  0.13931661  0.28493153  0.32603994     0.37140
N1965       N  0.09456676  0.20393756  0.44737279    -0.37680
N1966       N  0.14718987  0.29867432  0.30585839    -0.37680
N1967       N  0.10245470  0.29190299  0.45276735    -0.37120
N1968       N  0.13977802  0.21145924  0.29846651    -0.37130
loop_ 
_geom_bond_atom_site_label_1 
_geom_bond_atom_site_label_2 
_geom_bond_distance 
_geom_bond_site_symmetry_2 
_ccdc_geom_bond_type 
O1            C4   1.266       .  A
O1           Cd6   2.357       .  S
C2           O11   1.269       .  A
C2            O7   1.264       .  A
C2         C1955   1.492       .  S
O3            C9   1.266       .  A
O3           Cd6   2.489       .  S
C4           O12   1.269       .  A
C4         C1941   1.469       .  S
C5           O10   1.274       .  A
C5            O8   1.260       .  A
C5         C1927   1.500       .  S
Cd6          O13   2.489       .  S
Cd6          O12   2.481       .  S
Cd6          O11   2.452       .  S
Cd6           O7   2.417       .  S
Cd6          O10   2.577       .  S
Cd6           O8   2.413       .  S
C9           O13   1.267       .  A
C9         C1913   1.523       .  S
O14          C17   1.267       .  A
O14         Cd19   2.374       .  S
C15          O24   1.266       .  A
C15          O20   1.266       .  A
C15        C1958   1.473       .  S
O16          C22   1.280       .  A
O16         Cd19   2.549       .  S
C17          O25   1.270       .  A
C17        C1899   1.465       .  S
C18          O23   1.275       .  A
C18          O21   1.262       .  A
C18        C1885   1.498       .  S
Cd19         O26   2.416       .  S
Cd19         O25   2.464       .  S
Cd19         O24   2.435       .  S
Cd19         O20   2.422       .  S
Cd19         O23   2.547       .  S
Cd19         O21   2.434       .  S
C22          O26   1.261       .  A
C22        C1874   1.521       .  S
O27          C30   1.267       .  A
O27         Cd32   2.387       .  S
C28          O37   1.267       .  A
C28          O33   1.263       .  A
C28        C1944   1.467       .  S
O29          C35   1.279       .  A
O29         Cd32   2.558       .  S
C30          O38   1.272       .  A
C30        C1857   1.482       .  S
C31          O36   1.274       .  A
C31          O34   1.261       .  A
C31        C1843   1.500       .  S
Cd32         O39   2.400       .  S
Cd32         O38   2.441       .  S
Cd32         O37   2.481       .  S
Cd32         O33   2.374       .  S
Cd32         O36   2.562       .  S
Cd32         O34   2.429       .  S
C35          O39   1.259       .  A
C35        C1829   1.502       .  S
O40          C43   1.265       .  A
O40         Cd45   2.409       .  S
C41          O50   1.267       .  A
C41          O46   1.265       .  A
C41        C1818   1.464       .  S
O42          C48   1.271       .  A
O42         Cd45   2.546       .  S
C43          O51   1.267       .  A
C43        C1860   1.464       .  S
C44          O49   1.271       .  A
C44          O47   1.260       .  A
C44        C1888   1.505       .  S
Cd45         O52   2.438       .  S
Cd45         O51   2.436       .  S
Cd45         O50   2.452       .  S
Cd45         O46   2.402       .  S
Cd45         O49   2.551       .  S
Cd45         O47   2.453       .  S
C48          O52   1.261       .  A
C48        C1801   1.509       .  S
O53          C56   1.265       .  A
O53         Cd58   2.401       .  S
C54          O63   1.272       .  A
C54          O59   1.267       .  A
C54        C1902   1.468       .  S
O55          C61   1.279       .  A
O55         Cd58   2.542       .  S
C56          O64   1.268       .  A
C56        C1787   1.478       .  S
C57          O62   1.278       .  A
C57          O60   1.261       .  A
C57        C1773   1.519       .  S
Cd58         O65   2.367       .  S
Cd58         O64   2.450       .  S
Cd58         O63   2.462       .  S
Cd58         O59   2.369       .  S
Cd58         O62   2.578       .  S
Cd58         O60   2.369       .  S
C61          O65   1.260       .  A
C61        C1759   1.487       .  S
O66          C69   1.268       .  A
O66         Cd71   2.386       .  S
C67          O76   1.269       .  A
C67          O72   1.266       .  A
C67        C1790   1.467       .  S
O68          C74   1.273       .  A
O68         Cd71   2.524       .  S
C69          O77   1.267       .  A
C69        C1745   1.478       .  S
C70          O75   1.278       .  A
C70          O73   1.258       .  A
C70        C1731   1.513       .  S
Cd71         O78   2.461       .  S
Cd71         O77   2.449       .  S
Cd71         O76   2.456       .  S
Cd71         O72   2.397       .  S
Cd71         O75   2.543       .  S
Cd71         O73   2.407       .  S
C74          O78   1.262       .  A
C74        C1930   1.498       .  S
O79          C82   1.263       .  A
O79         Cd84   2.364       .  S
C80          O89   1.270       .  A
C80          O85   1.265       .  A
C80        C1717   1.498       .  S
O81          C87   1.277       .  A
O81         Cd84   2.563       .  S
C82          O90   1.268       .  A
C82        C1748   1.470       .  S
C83          O88   1.270       .  A
C83          O86   1.263       .  A
C83        C1846   1.519       .  S
Cd84         O91   2.407       .  S
Cd84         O90   2.477       .  S
Cd84         O89   2.444       .  S
Cd84         O85   2.384       .  S
Cd84         O88   2.529       .  S
Cd84         O86   2.456       .  S
C87          O91   1.257       .  A
C87        C1703   1.498       .  S
O92          C95   1.265       .  A
O92         Cd97   2.418       .  S
C93         O102   1.268       .  A
C93          O98   1.266       .  A
C93        C1815   1.466       .  S
O94         C100   1.263       .  A
O94         Cd97   2.463       .  S
C95         O103   1.268       .  A
C95        C1720   1.476       .  S
C96         O101   1.274       .  A
C96          O99   1.258       .  A
C96        C1689   1.493       .  S
Cd97        O104   2.524       .  S
Cd97        O103   2.454       .  S
Cd97        O102   2.453       .  S
Cd97         O98   2.403       .  S
Cd97        O101   2.563       .  S
Cd97         O99   2.399       .  S
C100        O104   1.267       .  A
C100       C1776   1.492       .  S
O105        C108   1.265       .  A
O105       Cd110   2.415       .  S
C106        O115   1.268       .  A
C106        O111   1.265       .  A
C106       C1664   1.469       .  S
O107        C113   1.274       .  A
O107       Cd110   2.580       .  S
C108        O116   1.269       .  A
C108       C1675   1.482       .  S
C109        O114   1.270       .  A
C109        O112   1.264       .  A
C109       C1916   1.521       .  S
Cd110       O117   2.410       .  S
Cd110       O116   2.464       .  S
Cd110       O115   2.489       .  S
Cd110       O111   2.357       .  S
Cd110       O114   2.509       .  S
Cd110       O112   2.474       .  S
C113        O117   1.259       .  A
C113       C1647   1.498       .  S
O118        C121   1.266       .  A
O118       Cd123   2.404       .  S
C119        O128   1.269       .  A
C119        O124   1.266       .  A
C119       C1633   1.467       .  S
O120        C126   1.275       .  A
O120       Cd123   2.544       .  S
C121        O129   1.269       .  A
C121       C1678   1.487       .  S
C122        O127   1.277       .  A
C122        O125   1.260       .  A
C122       C1608   1.504       .  S
Cd123       O130   2.428       .  S
Cd123       O129   2.457       .  S
Cd123       O128   2.472       .  S
Cd123       O124   2.362       .  S
Cd123       O127   2.544       .  S
Cd123       O125   2.416       .  S
C126        O130   1.263       .  A
C126       C1622   1.501       .  S
O131        C134   1.267       .  A
O131       Cd136   2.384       .  S
C132        O141   1.269       .  A
C132        O137   1.266       .  A
C132       C1636   1.468       .  S
O133        C139   1.279       .  A
O133       Cd136   2.542       .  S
C134        O142   1.269       .  A
C134       C1591   1.463       .  S
C135        O140   1.272       .  A
C135        O138   1.262       .  A
C135       C1577   1.499       .  S
Cd136       O143   2.375       .  S
Cd136       O142   2.440       .  S
Cd136       O141   2.458       .  S
Cd136       O137   2.369       .  S
Cd136       O140   2.551       .  S
Cd136       O138   2.422       .  S
C139        O143   1.258       .  A
C139       C1563   1.496       .  S
O144        C147   1.267       .  A
O144       Cd149   2.388       .  S
C145        O154   1.270       .  A
C145        O150   1.267       .  A
C145       C1594   1.483       .  S
O146        C152   1.271       .  A
O146       Cd149   2.523       .  S
C147        O155   1.267       .  A
C147       C1552   1.477       .  S
C148        O153   1.277       .  A
C148        O151   1.261       .  A
C148       C1734   1.501       .  S
Cd149       O156   2.465       .  S
Cd149       O155   2.441       .  S
Cd149       O154   2.444       .  S
Cd149       O150   2.389       .  S
Cd149       O153   2.533       .  S
Cd149       O151   2.415       .  S
C152        O156   1.263       .  A
C152       C1650   1.495       .  S
O157        C160   1.266       .  A
O157       Cd162   2.390       .  S
C158        O167   1.270       .  A
C158        O163   1.265       .  A
C158       C1549   1.471       .  S
O159        C165   1.277       .  A
O159       Cd162   2.547       .  S
C160        O168   1.269       .  A
C160       C1538   1.473       .  S
C161        O166   1.277       .  A
C161        O164   1.262       .  A
C161       C1507   1.496       .  S
Cd162       O169   2.383       .  S
Cd162       O168   2.451       .  S
Cd162       O167   2.462       .  S
Cd162       O163   2.354       .  S
Cd162       O166   2.509       .  S
Cd162       O164   2.394       .  S
C165        O169   1.262       .  A
C165       C1521   1.500       .  S
O170        C173   1.267       .  A
O170       Cd175   2.390       .  S
C171        O180   1.268       .  A
C171        O176   1.264       .  A
C171       C1493   1.488       .  S
O172        C178   1.265       .  A
O172       Cd175   2.478       .  S
C173        O181   1.270       .  A
C173       C1535   1.467       .  S
C174        O179   1.275       .  A
C174        O177   1.256       .  A
C174       C1482   1.492       .  S
Cd175       O182   2.513       .  S
Cd175       O181   2.439       .  S
Cd175       O180   2.453       .  S
Cd175       O176   2.406       .  S
Cd175       O179   2.564       .  S
Cd175       O177   2.393       .  S
C178        O182   1.267       .  A
C178       C1580   1.493       .  S
O183        C186   1.265       .  A
O183       Cd188   2.374       .  S
C184        O193   1.267       .  A
C184        O189   1.266       .  A
C184       C1496   1.483       .  S
O185        C191   1.277       .  A
O185       Cd188   2.533       .  S
C186        O194   1.270       .  A
C186       C1465   1.467       .  S
C187        O192   1.272       .  A
C187        O190   1.264       .  A
C187       C1619   1.497       .  S
Cd188       O195   2.397       .  S
Cd188       O194   2.458       .  S
Cd188       O193   2.444       .  S
Cd188       O189   2.392       .  S
Cd188       O192   2.510       .  S
Cd188       O190   2.456       .  S
C191        O195   1.259       .  A
C191       C1451   1.505       .  S
O196        C199   1.267       .  A
O196       Cd201   2.389       .  S
C197        O206   1.270       .  A
C197        O202   1.267       .  A
C197       C1661   1.468       .  S
O198        C204   1.279       .  A
O198       Cd201   2.524       .  S
C199        O207   1.269       .  A
C199       C1468   1.472       .  S
C200        O205   1.277       .  A
C200        O203   1.264       .  A
C200       C1524   1.495       .  S
Cd201       O208   2.346       .  S
Cd201       O207   2.453       .  S
Cd201       O206   2.464       .  S
Cd201       O202   2.369       .  S
Cd201       O205   2.537       .  S
Cd201       O203   2.384       .  S
C204        O208   1.258       .  A
C204       C1437   1.479       .  S
O209        C212   1.265       .  A
O209       Cd214   2.377       .  S
C210        O219   1.270       .  A
C210        O215   1.268       .  A
C210       C1423   1.479       .  S
O211        C217   1.278       .  A
O211       Cd214   2.520       .  S
C212        O220   1.268       .  A
C212       C1409   1.465       .  S
C213        O218   1.275       .  A
C213        O216   1.263       .  A
C213       C1395   1.492       .  S
Cd214       O221   2.380       .  S
Cd214       O220   2.470       .  S
Cd214       O219   2.449       .  S
Cd214       O215   2.404       .  S
Cd214       O218   2.548       .  S
Cd214       O216   2.387       .  S
C217        O221   1.260       .  A
C217       C1510   1.486       .  S
O222        C225   1.266       .  A
O222       Cd227   2.361       .  S
C223        O232   1.267       .  A
C223        O228   1.261       .  A
C223       C1426   1.471       .  S
O224        C230   1.277       .  A
O224       Cd227   2.561       .  S
C225        O233   1.271       .  A
C225       C1381   1.470       .  S
C226        O231   1.274       .  A
C226        O229   1.262       .  A
C226       C1367   1.504       .  S
Cd227       O234   2.416       .  S
Cd227       O233   2.464       .  S
Cd227       O232   2.479       .  S
Cd227       O228   2.404       .  S
Cd227       O231   2.559       .  S
Cd227       O229   2.442       .  S
C230        O234   1.259       .  A
C230       C1356   1.501       .  S
O235        C238   1.268       .  A
O235       Cd240   2.379       .  S
C236        O245   1.266       .  A
C236        O241   1.264       .  A
C236       C1412   1.465       .  S
O237        C243   1.280       .  A
O237       Cd240   2.541       .  S
C238        O246   1.273       .  A
C238       C1339   1.477       .  S
C239        O244   1.275       .  A
C239        O242   1.262       .  A
C239       C1325   1.499       .  S
Cd240       O247   2.382       .  S
Cd240       O246   2.441       .  S
Cd240       O245   2.472       .  S
Cd240       O241   2.384       .  S
Cd240       O244   2.565       .  S
Cd240       O242   2.402       .  S
C243        O247   1.259       .  A
C243       C1311   1.490       .  S
O248        C251   1.266       .  A
O248       Cd253   2.383       .  S
C249        O258   1.267       .  A
C249        O254   1.267       .  A
C249       C1297   1.474       .  S
O250        C256   1.278       .  A
O250       Cd253   2.542       .  S
C251        O259   1.270       .  A
C251       C1342   1.465       .  S
C252        O257   1.273       .  A
C252        O255   1.264       .  A
C252       C1370   1.500       .  S
Cd253       O260   2.412       .  S
Cd253       O259   2.441       .  S
Cd253       O258   2.447       .  S
Cd253       O254   2.379       .  S
Cd253       O257   2.523       .  S
Cd253       O255   2.461       .  S
C256        O260   1.261       .  A
C256       C1283   1.507       .  S
O261        C264   1.265       .  A
O261       Cd266   2.359       .  S
C262        O271   1.272       .  A
C262        O267   1.266       .  A
C262       C1269   1.477       .  S
O263        C269   1.276       .  A
O263       Cd266   2.544       .  S
C264        O272   1.268       .  A
C264       C1384   1.470       .  S
C265        O270   1.279       .  A
C265        O268   1.260       .  A
C265       C1241   1.486       .  S
Cd266       O273   2.382       .  S
Cd266       O272   2.490       .  S
Cd266       O271   2.460       .  S
Cd266       O267   2.387       .  S
Cd266       O270   2.524       .  S
Cd266       O268   2.374       .  S
C269        O273   1.263       .  A
C269       C1255   1.489       .  S
O274        C277   1.267       .  A
O274       Cd279   2.332       .  S
C275        O284   1.268       .  A
C275        O280   1.264       .  A
C275       C1272   1.472       .  S
O276        C282   1.278       .  A
O276       Cd279   2.567       .  S
C277        O285   1.272       .  A
C277       C1227   1.470       .  S
C278        O283   1.273       .  A
C278        O281   1.262       .  A
C278       C1440   1.494       .  S
Cd279       O286   2.369       .  S
Cd279       O285   2.460       .  S
Cd279       O284   2.452       .  S
Cd279       O280   2.401       .  S
Cd279       O283   2.494       .  S
Cd279       O281   2.406       .  S
C282        O286   1.260       .  A
C282       C1398   1.506       .  S
O287        C290   1.267       .  A
O287       Cd292   2.381       .  S
C288        O297   1.267       .  A
C288        O293   1.263       .  A
C288       C1230   1.488       .  S
O289        C295   1.268       .  A
O289       Cd292   2.538       .  S
C290        O298   1.271       .  A
C290       C1213   1.478       .  S
C291        O296   1.274       .  A
C291        O294   1.256       .  A
C291       C1202   1.500       .  S
Cd292       O299   2.467       .  S
Cd292       O298   2.446       .  S
Cd292       O297   2.464       .  S
Cd292       O293   2.397       .  S
Cd292       O296   2.564       .  S
Cd292       O294   2.409       .  S
C295        O299   1.264       .  A
C295       C1328   1.500       .  S
O300        C303   1.262       .  A
O300       Cd305   2.348       .  S
C301        O310   1.268       .  A
C301        O306   1.261       .  A
C301       C1300   1.474       .  S
O302        C308   1.275       .  A
O302       Cd305   2.566       .  S
C303        O311   1.273       .  A
C303       C1216   1.480       .  S
C304        O309   1.276       .  A
C304        O307   1.259       .  A
C304       C1185   1.497       .  S
Cd305       O312   2.365       .  S
Cd305       O311   2.480       .  S
Cd305       O310   2.477       .  S
Cd305       O306   2.364       .  S
Cd305       O309   2.529       .  S
Cd305       O307   2.387       .  S
C308        O312   1.260       .  A
C308       C1258   1.490       .  S
O313        C316   1.264       .  A
O313       Cd318   2.367       .  S
C314        O323   1.269       .  A
C314        O319   1.265       .  A
C314       C1171   1.481       .  S
O315        C321   1.275       .  A
O315       Cd318   2.539       .  S
C316        O324   1.269       .  A
C316       C1157   1.475       .  S
C317        O322   1.274       .  A
C317        O320   1.262       .  A
C317       C1143   1.503       .  S
Cd318       O325   2.414       .  S
Cd318       O324   2.472       .  S
Cd318       O323   2.438       .  S
Cd318       O319   2.386       .  S
Cd318       O322   2.549       .  S
Cd318       O320   2.419       .  S
C321        O325   1.260       .  A
C321       C1199   1.498       .  S
O326        C329   1.264       .  A
O326       Cd331   2.368       .  S
C327        O336   1.268       .  A
C327        O332   1.265       .  A
C327       C1174   1.477       .  S
O328        C334   1.275       .  A
O328       Cd331   2.548       .  S
C329        O337   1.269       .  A
C329       C1129   1.471       .  S
C330        O335   1.272       .  A
C330        O333   1.262       .  A
C330       C1115   1.505       .  S
Cd331       O338   2.421       .  S
Cd331       O337   2.477       .  S
Cd331       O336   2.436       .  S
Cd331       O332   2.389       .  S
Cd331       O335   2.542       .  S
Cd331       O333   2.438       .  S
C334        O338   1.259       .  A
C334       C1101   1.504       .  S
O339        C342   1.264       .  A
O339       Cd344   2.374       .  S
C340        O349   1.270       .  A
C340        O345   1.265       .  A
C340       C1160   1.475       .  S
O341        C347   1.279       .  A
O341       Cd344   2.549       .  S
C342        O350   1.270       .  A
C342       C1087   1.473       .  S
C343        O348   1.277       .  A
C343        O346   1.262       .  A
C343       C1073   1.495       .  S
Cd344       O351   2.409       .  S
Cd344       O350   2.467       .  S
Cd344       O349   2.462       .  S
Cd344       O345   2.374       .  S
Cd344       O348   2.562       .  S
Cd344       O346   2.410       .  S
C347        O351   1.261       .  A
C347       C1832   1.513       .  S
O352        C355   1.266       .  A
O352       Cd357   2.393       .  S
C353        O362   1.269       .  A
C353        O358   1.266       .  A
C353       C1090   1.471       .  S
O354        C360   1.271       .  A
O354       Cd357   2.539       .  S
C355        O363   1.268       .  A
C355       C1059   1.477       .  S
C356        O361   1.270       .  A
C356        O359   1.262       .  A
C356       C1045   1.500       .  S
Cd357       O364   2.450       .  S
Cd357       O363   2.444       .  S
Cd357       O362   2.439       .  S
Cd357       O358   2.409       .  S
Cd357       O361   2.515       .  S
Cd357       O359   2.447       .  S
C360        O364   1.262       .  A
C360       C1118   1.500       .  S
O365        C368   1.265       .  A
O365       Cd370   2.373       .  S
C366        O375   1.270       .  A
C366        O371   1.267       .  A
C366       C1132   1.473       .  S
O367        C373   1.280       .  A
O367       Cd370   2.536       .  S
C368        O376   1.269       .  A
C368       C1031   1.465       .  S
C369        O374   1.277       .  A
C369        O372   1.263       .  A
C369       C1017   1.490       .  S
Cd370       O377   2.377       .  S
Cd370       O376   2.462       .  S
Cd370       O375   2.468       .  S
Cd370       O371   2.358       .  S
Cd370       O374   2.544       .  S
Cd370       O372   2.397       .  S
C373        O377   1.260       .  A
C373       C1003   1.494       .  S
O378        C381   1.266       .  A
O378       Cd383   2.388       .  S
C379        O388   1.270       .  A
C379        O384   1.266       .  A
C379       C1034   1.471       .  S
O380        C386   1.274       .  A
O380       Cd383   2.538       .  S
C381        O389   1.269       .  A
C381        C989   1.480       .  S
C382        O387   1.277       .  A
C382        O385   1.261       .  A
C382       C1314   1.506       .  S
Cd383       O390   2.430       .  S
Cd383       O389   2.447       .  S
Cd383       O388   2.453       .  S
Cd383       O384   2.379       .  S
Cd383       O387   2.527       .  S
Cd383       O385   2.405       .  S
C386        O390   1.264       .  A
C386       C1146   1.503       .  S
O391        C394   1.267       .  A
O391       Cd396   2.403       .  S
C392        O401   1.270       .  A
C392        O397   1.267       .  A
C392        C975   1.474       .  S
O393        C399   1.277       .  A
O393       Cd396   2.543       .  S
C394        O402   1.267       .  A
C394        C992   1.481       .  S
C395        O400   1.270       .  A
C395        O398   1.264       .  A
C395       C1076   1.499       .  S
Cd396       O403   2.415       .  S
Cd396       O402   2.438       .  S
Cd396       O401   2.449       .  S
Cd396       O397   2.386       .  S
Cd396       O400   2.514       .  S
Cd396       O398   2.479       .  S
C399        O403   1.260       .  A
C399       C1706   1.509       .  S
O404        C407   1.266       .  A
O404       Cd409   2.386       .  S
C405        O414   1.269       .  A
C405        O410   1.264       .  A
C405        C978   1.467       .  S
O406        C412   1.277       .  A
O406       Cd409   2.518       .  S
C407        O415   1.269       .  A
C407       C1062   1.478       .  S
C408        O413   1.275       .  A
C408        O411   1.263       .  A
C408       C1020   1.489       .  S
Cd409       O416   2.414       .  S
Cd409       O415   2.443       .  S
Cd409       O414   2.462       .  S
Cd409       O410   2.382       .  S
Cd409       O413   2.543       .  S
Cd409       O411   2.411       .  S
C412        O416   1.261       .  A
C412        C964   1.500       .  S
O417        C420   1.265       .  A
O417       Cd422   2.411       .  S
C418        O427   1.270       .  A
C418        O423   1.265       .  A
C418        C933   1.472       .  S
O419        C425   1.275       .  A
O419       Cd422   2.561       .  S
C420        O428   1.267       .  A
C420        C947   1.489       .  S
C421        O426   1.260       .  A
C421        O424   1.277       .  A
C421       C1104   1.499       .  S
Cd422       O429   2.424       .  S
Cd422       O428   2.441       .  S
Cd422       O427   2.499       .  S
Cd422       O423   2.369       .  S
Cd422       O426   2.400       .  S
Cd422       O424   2.547       .  S
C425        O429   1.262       .  A
C425        C922   1.497       .  S
O430        C433   1.265       .  A
O430       Cd435   2.407       .  S
C431        O440   1.272       .  A
C431        O436   1.270       .  A
C431        C905   1.471       .  S
O432        C438   1.272       .  A
O432       Cd435   2.539       .  S
C433        O441   1.266       .  A
C433        C950   1.468       .  S
C434        O439   1.280       .  A
C434        O437   1.259       .  A
C434       C1188   1.507       .  S
Cd435       O442   2.409       .  S
Cd435       O441   2.460       .  S
Cd435       O440   2.435       .  S
Cd435       O436   2.370       .  S
Cd435       O439   2.525       .  S
Cd435       O437   2.380       .  S
C438        O442   1.261       .  A
C438        C891   1.489       .  S
O443        C446   1.264       .  A
O443       Cd448   2.394       .  S
C444        O453   1.271       .  A
C444        O449   1.269       .  A
C444        C877   1.480       .  S
O445        C451   1.273       .  A
O445       Cd448   2.542       .  S
C446        O454   1.266       .  A
C446        C936   1.467       .  S
C447        O452   1.278       .  A
C447        O450   1.259       .  A
C447       C1454   1.492       .  S
Cd448       O455   2.429       .  S
Cd448       O454   2.474       .  S
Cd448       O453   2.431       .  S
Cd448       O449   2.400       .  S
Cd448       O452   2.541       .  S
Cd448       O450   2.388       .  S
C451        O455   1.262       .  A
C451        C863   1.493       .  S
O456        C459   1.261       .  A
O456       Cd461   2.372       .  S
C457        O466   1.273       .  A
C457        O462   1.265       .  A
C457        C849   1.475       .  S
O458        C464   1.279       .  A
O458       Cd461   2.523       .  S
C459        O467   1.268       .  A
C459        C880   1.464       .  S
C460        O465   1.278       .  A
C460        O463   1.260       .  A
C460        C894   1.498       .  S
Cd461       O468   2.364       .  S
Cd461       O467   2.479       .  S
Cd461       O466   2.472       .  S
Cd461       O462   2.326       .  S
Cd461       O465   2.574       .  S
Cd461       O463   2.345       .  S
C464        O468   1.259       .  A
C464       C1244   1.489       .  S
O469        C472   1.265       .  A
O469       Cd474   2.396       .  S
C470        O479   1.269       .  A
C470        O475   1.263       .  A
C470        C852   1.479       .  S
O471        C477   1.271       .  A
O471       Cd474   2.565       .  S
C472        O480   1.269       .  A
C472        C838   1.485       .  S
C473        O478   1.273       .  A
C473        O476   1.261       .  A
C473       C1871   1.503       .  S
Cd474       O481   2.461       .  S
Cd474       O480   2.462       .  S
Cd474       O479   2.466       .  S
Cd474       O475   2.382       .  S
Cd474       O478   2.540       .  S
Cd474       O476   2.442       .  S
C477        O481   1.262       .  A
C477        C821   1.499       .  S
O482        C485   1.265       .  A
O482       Cd487   2.394       .  S
C483        O492   1.268       .  A
C483        O488   1.267       .  A
C483        C835   1.467       .  S
O484        C490   1.276       .  A
O484       Cd487   2.525       .  S
C485        O493   1.267       .  A
C485        C810   1.479       .  S
C486        O491   1.273       .  A
C486        O489   1.262       .  A
C486        C866   1.500       .  S
Cd487       O494   2.426       .  S
Cd487       O493   2.456       .  S
Cd487       O492   2.442       .  S
Cd487       O488   2.398       .  S
Cd487       O491   2.542       .  S
Cd487       O489   2.425       .  S
C490        O494   1.262       .  A
C490       C1605   1.503       .  S
O495        C498   1.266       .  A
O495       Cd500   2.391       .  S
C496        O505   1.269       .  A
C496        O501   1.265       .  A
C496        C793   1.477       .  S
O497        C503   1.269       .  A
O497       Cd500   2.505       .  S
C498        O506   1.268       .  A
C498        C807   1.481       .  S
C499        O504   1.275       .  A
C499        O502   1.260       .  A
C499       C1048   1.505       .  S
Cd500       O507   2.487       .  S
Cd500       O506   2.449       .  S
Cd500       O505   2.454       .  S
Cd500       O501   2.396       .  S
Cd500       O504   2.552       .  S
Cd500       O502   2.417       .  S
C503        O507   1.264       .  A
C503        C919   1.500       .  S
O508        C511   1.263       .  A
O508       Cd513   2.396       .  S
C509        O518   1.268       .  A
C509        O514   1.265       .  A
C509        C908   1.468       .  S
O510        C516   1.272       .  A
O510       Cd513   2.549       .  S
C511        O519   1.269       .  A
C511        C796   1.499       .  S
C512        O517   1.267       .  A
C512        O515   1.262       .  A
C512        C824   1.497       .  S
Cd513       O520   2.435       .  S
Cd513       O519   2.451       .  S
Cd513       O518   2.460       .  S
Cd513       O514   2.368       .  S
Cd513       O517   2.532       .  S
Cd513       O515   2.489       .  S
C516        O520   1.260       .  A
C516       C1804   1.521       .  S
O521        C524   1.264       .  A
O521       Cd526   2.400       .  S
C522        O531   1.270       .  A
C522        O527   1.266       .  A
C522        C765   1.479       .  S
O523        C529   1.271       .  A
O523       Cd526   2.539       .  S
C524        O532   1.268       .  A
C524        C779   1.475       .  S
C525        O530   1.277       .  A
C525        O528   1.258       .  A
C525        C961   1.497       .  S
Cd526       O533   2.447       .  S
Cd526       O532   2.472       .  S
Cd526       O531   2.461       .  S
Cd526       O527   2.370       .  S
Cd526       O530   2.554       .  S
Cd526       O528   2.393       .  S
C529        O533   1.262       .  A
C529        C751   1.508       .  S
O534        C537   1.268       .  A
O534       Cd539   2.384       .  S
C535        O544   1.268       .  A
C535        O540   1.267       .  A
C535        C782   1.471       .  S
O536        C542   1.274       .  A
O536       Cd539   2.528       .  S
C537        O545   1.269       .  A
C537        C737   1.477       .  S
C538        O543   1.274       .  A
C538        O541   1.262       .  A
C538        C723   1.493       .  S
Cd539       O546   2.431       .  S
Cd539       O545   2.456       .  S
Cd539       O544   2.436       .  S
Cd539       O540   2.407       .  S
Cd539       O543   2.540       .  S
Cd539       O541   2.434       .  S
C542        O546   1.262       .  A
C542       C1692   1.498       .  S
O547        C550   1.266       .  A
O547       Cd552   2.377       .  S
C548        O557   1.266       .  A
C548        O553   1.263       .  A
C548        C768   1.476       .  S
O549        C555   1.277       .  A
O549       Cd552   2.551       .  S
C550        O558   1.272       .  A
C550        C709   1.469       .  S
C551        O556   1.271       .  A
C551        O554   1.263       .  A
C551        C695   1.506       .  S
Cd552       O559   2.386       .  S
Cd552       O558   2.460       .  S
Cd552       O557   2.467       .  S
Cd552       O553   2.387       .  S
Cd552       O556   2.521       .  S
Cd552       O554   2.452       .  S
C555        O559   1.256       .  A
C555       C1566   1.487       .  S
O560        C563   1.269       .  A
O560       Cd565   2.389       .  S
C561        O570   1.268       .  A
C561        O566   1.268       .  A
C561        C712   1.474       .  S
O562        C568   1.273       .  A
O562       Cd565   2.534       .  S
C563        O571   1.268       .  A
C563        C681   1.478       .  S
C564        O569   1.274       .  A
C564        O567   1.262       .  A
C564       C1762   1.496       .  S
Cd565       O572   2.443       .  S
Cd565       O571   2.444       .  S
Cd565       O570   2.434       .  S
Cd565       O566   2.411       .  S
Cd565       O569   2.522       .  S
Cd565       O567   2.427       .  S
C568        O572   1.263       .  A
C568        C726   1.493       .  S
O573        C576   1.264       .  A
O573       Cd578   2.371       .  S
C574        O583   1.269       .  A
C574        O579   1.263       .  A
C574        C740   1.475       .  S
O575        C581   1.277       .  A
O575       Cd578   2.549       .  S
C576        O584   1.271       .  A
C576        C667   1.475       .  S
C577        O582   1.276       .  A
C577        O580   1.261       .  A
C577        C653   1.493       .  S
Cd578       O585   2.414       .  S
Cd578       O584   2.470       .  S
Cd578       O583   2.478       .  S
Cd578       O579   2.364       .  S
Cd578       O582   2.564       .  S
Cd578       O580   2.403       .  S
C581        O585   1.260       .  A
C581       C1286   1.495       .  S
O586        C589   1.265       .  A
O586       Cd591   2.413       .  S
C587        O596   1.267       .  A
C587        O592   1.266       .  A
C587        C639   1.476       .  S
O588        C594   1.269       .  A
O588       Cd591   2.502       .  S
C589        O597   1.269       .  A
C589        C670   1.471       .  S
C590        O595   1.270       .  A
C590        O593   1.261       .  A
C590        C754   1.500       .  S
Cd591       O598   2.444       .  S
Cd591       O597   2.443       .  S
Cd591       O596   2.454       .  S
Cd591       O592   2.394       .  S
Cd591       O595   2.540       .  S
Cd591       O593   2.459       .  S
C594        O598   1.263       .  A
C594       C1006   1.500       .  S
O599        C602   1.263       .  A
O599       Cd604   2.396       .  S
C600        O609   1.271       .  A
C600        O605   1.267       .  A
C600        C642   1.467       .  S
O601        C607   1.268       .  A
O601       Cd604   2.506       .  S
C602        O610   1.267       .  A
C602        C625   1.499       .  S
C603        O608   1.276       .  A
C603        O606   1.256       .  A
C603       C1479   1.496       .  S
Cd604       O611   2.476       .  S
Cd604       O610   2.454       .  S
Cd604       O609   2.444       .  S
Cd604       O605   2.358       .  S
Cd604       O608   2.546       .  S
Cd604       O606   2.397       .  S
C607        O611   1.264       .  A
C607        C698   1.517       .  S
O612        C615   1.263       .  A
O612       Cd617   2.351       .  S
C613        O622   1.270       .  A
C613        O618   1.263       .  A
C613        C684   1.473       .  S
O614        C620   1.277       .  A
O614       Cd617   2.566       .  S
C615        O623   1.271       .  A
C615        C628   1.473       .  S
C616        O621   1.277       .  A
C616        O619   1.261       .  A
C616       C1353   1.500       .  S
Cd617       O624   2.397       .  S
Cd617       O623   2.476       .  S
Cd617       O622   2.473       .  S
Cd617       O618   2.358       .  S
Cd617       O621   2.539       .  S
Cd617       O619   2.427       .  S
C620        O624   1.260       .  A
C620        C656   1.492       .  S
C625        C626   1.426       .  A
C625        C630   1.425       .  A
C626        C627   1.411       .  A
C626        C631   1.452       .  S
C627        C628   1.407       .  A
C627        C634   1.452       .  S
C628        C629   1.407       .  A
C629        C630   1.404       .  A
C629        C632   1.456       .  S
C630        C633   1.453       .  S
C631        N638   1.158       .  T
C632        N637   1.157       .  T
C633        N635   1.158       .  T
C634        N636   1.157       .  T
C639        C640   1.414       .  A
C639        C644   1.415       .  A
C640        C641   1.399   1_556  A
C640        C645   1.453       .  S
C641        C642   1.411       .  A
C641        C648   1.456       .  S
C642        C643   1.408       .  A
C643        C644   1.411   1_554  A
C643        C646   1.450       .  S
C644        C647   1.449       .  S
C645        N652   1.157       .  T
C646        N651   1.157       .  T
C647        N649   1.157       .  T
C648        N650   1.157       .  T
C653        C654   1.413       .  A
C653        C658   1.414       .  A
C654        C655   1.422   1_556  A
C654        C659   1.448       .  S
C655        C656   1.413       .  A
C655        C662   1.448       .  S
C656        C657   1.414       .  A
C657        C658   1.411   1_554  A
C657        C660   1.452       .  S
C658        C661   1.453       .  S
C659        N666   1.157       .  T
C660        N665   1.157       .  T
C661        N663   1.157       .  T
C662        N664   1.157       .  T
C667        C668   1.416       .  A
C667        C672   1.409       .  A
C668        C669   1.404       .  A
C668        C673   1.453       .  S
C669        C670   1.407       .  A
C669        C676   1.452       .  S
C670        C671   1.414       .  A
C671        C672   1.409       .  A
C671        C674   1.451       .  S
C672        C675   1.451       .  S
C673        N680   1.157       .  T
C674        N679   1.157       .  T
C675        N677   1.157       .  T
C676        N678   1.157       .  T
C681        C682   1.410       .  A
C681        C686   1.415       .  A
C682        C683   1.402       .  A
C682        C687   1.452       .  S
C683        C684   1.413       .  A
C683        C690   1.453       .  S
C684        C685   1.410       .  A
C685        C686   1.409       .  A
C685        C688   1.451       .  S
C686        C689   1.448       .  S
C687        N694   1.157       .  T
C688        N693   1.157       .  T
C689        N691   1.157       .  T
C690        N692   1.157       .  T
C695        C696   1.415       .  A
C695        C700   1.416       .  A
C696        C697   1.418       .  A
C696        C701   1.452       .  S
C697        C698   1.422       .  A
C697        C704   1.451       .  S
C698        C699   1.424       .  A
C699        C700   1.419       .  A
C699        C702   1.452       .  S
C700        C703   1.452       .  S
C701        N708   1.157       .  T
C702        N707   1.157       .  T
C703        N705   1.158       .  T
C704        N706   1.157       .  T
C709        C710   1.407       .  A
C709        C714   1.413       .  A
C710        C711   1.408       .  A
C710        C715   1.450       .  S
C711        C712   1.415       .  A
C711        C718   1.451       .  S
C712        C713   1.410       .  A
C713        C714   1.405       .  A
C713        C716   1.452       .  S
C714        C717   1.452       .  S
C715        N722   1.157       .  T
C716        N721   1.157       .  T
C717        N719   1.157       .  T
C718        N720   1.157       .  T
C723        C724   1.414       .  A
C723        C728   1.413       .  A
C724        C725   1.416   1_556  A
C724        C729   1.452       .  S
C725        C726   1.415       .  A
C725        C732   1.452       .  S
C726        C727   1.413       .  A
C727        C728   1.419   1_554  A
C727        C730   1.449       .  S
C728        C731   1.449       .  S
C729        N736   1.157       .  T
C730        N735   1.157       .  T
C731        N733   1.157       .  T
C732        N734   1.157       .  T
C737        C738   1.410       .  A
C737        C742   1.413       .  A
C738        C739   1.402       .  A
C738        C743   1.452       .  S
C739        C740   1.413       .  A
C739        C746   1.453       .  S
C740        C741   1.411       .  A
C741        C742   1.410       .  A
C741        C744   1.451       .  S
C742        C745   1.448       .  S
C743        N750   1.157       .  T
C744        N749   1.157       .  T
C745        N747   1.157       .  T
C746        N748   1.157       .  T
C751        C752   1.418       .  A
C751        C756   1.420       .  A
C752        C753   1.418       .  A
C752        C757   1.449       .  S
C753        C754   1.415       .  A
C753        C760   1.451       .  S
C754        C755   1.414       .  A
C755        C756   1.417       .  A
C755        C758   1.450       .  S
C756        C759   1.452       .  S
C757        N764   1.157       .  T
C758        N763   1.157       .  T
C759        N761   1.157       .  T
C760        N762   1.157       .  T
C765        C766   1.414       .  A
C765        C770   1.415       .  A
C766        C767   1.399   1_556  A
C766        C771   1.454       .  S
C767        C768   1.413       .  A
C767        C774   1.455       .  S
C768        C769   1.412       .  A
C769        C770   1.413   1_554  A
C769        C772   1.451       .  S
C770        C773   1.451       .  S
C771        N778   1.157       .  T
C772        N777   1.157       .  T
C773        N775   1.157       .  T
C774        N776   1.157       .  T
C779        C780   1.415       .  A
C779        C784   1.409       .  A
C780        C781   1.405       .  A
C780        C785   1.452       .  S
C781        C782   1.408       .  A
C781        C788   1.452       .  S
C782        C783   1.412       .  A
C783        C784   1.408       .  A
C783        C786   1.452       .  S
C784        C787   1.449       .  S
C785        N792   1.157       .  T
C786        N791   1.157       .  T
C787        N789   1.157       .  T
C788        N790   1.157       .  T
C793        C794   1.409       .  A
C793        C798   1.407       .  A
C794        C795   1.410       .  A
C794        C799   1.451       .  S
C795        C796   1.423       .  A
C795        C802   1.452       .  S
C796        C797   1.426       .  A
C797        C798   1.407       .  A
C797        C800   1.453       .  S
C798        C801   1.455       .  S
C799        N806   1.157       .  T
C800        N805   1.158       .  T
C801        N803   1.157       .  T
C802        N804   1.157       .  T
C807        C808   1.413       .  A
C807        C812   1.414       .  A
C808        C809   1.404   1_556  A
C808        C813   1.453       .  S
C809        C810   1.412       .  A
C809        C816   1.453       .  S
C810        C811   1.414       .  A
C811        C812   1.410   1_554  A
C811        C814   1.451       .  S
C812        C815   1.451       .  S
C813        N820   1.157       .  T
C814        N819   1.157       .  T
C815        N817   1.157       .  T
C816        N818   1.157       .  T
C821        C822   1.414       .  A
C821        C826   1.412       .  A
C822        C823   1.427   1_554  A
C822        C827   1.446       .  S
C823        C824   1.415       .  A
C823        C830   1.447       .  S
C824        C825   1.413       .  A
C825        C826   1.409   1_556  A
C825        C828   1.453       .  S
C826        C829   1.449       .  S
C827        N834   1.157       .  T
C828        N833   1.157       .  T
C829        N831   1.155       .  T
C830        N832   1.157       .  T
C835        C836   1.405       .  A
C835        C840   1.409       .  A
C836        C837   1.405       .  A
C836        C841   1.453       .  S
C837        C838   1.420       .  A
C837        C844   1.453       .  S
C838        C839   1.417       .  A
C839        C840   1.410       .  A
C839        C842   1.451       .  S
C840        C843   1.452       .  S
C841        N848   1.157       .  T
C842        N847   1.157       .  T
C843        N845   1.157       .  T
C844        N846   1.158       .  T
C849        C850   1.410       .  A
C849        C854   1.412       .  A
C850        C851   1.412       .  A
C850        C855   1.451       .  S
C851        C852   1.417       .  A
C851        C858   1.451       .  S
C852        C853   1.415       .  A
C853        C854   1.399       .  A
C853        C856   1.453       .  S
C854        C857   1.455       .  S
C855        N862   1.157       .  T
C856        N861   1.158       .  T
C857        N859   1.157       .  T
C858        N860   1.157       .  T
C863        C864   1.413       .  A
C863        C868   1.412       .  A
C864        C865   1.419       .  A
C864        C869   1.450       .  S
C865        C866   1.418       .  A
C865        C872   1.450       .  S
C866        C867   1.417       .  A
C867        C868   1.414       .  A
C867        C870   1.451       .  S
C868        C871   1.451       .  S
C869        N876   1.157       .  T
C870        N875   1.157       .  T
C871        N873   1.157       .  T
C872        N874   1.157       .  T
C877        C878   1.419       .  A
C877        C882   1.413       .  A
C878        C879   1.406       .  A
C878        C883   1.452       .  S
C879        C880   1.404       .  A
C879        C886   1.451       .  S
C880        C881   1.409       .  A
C881        C882   1.406       .  A
C881        C884   1.453       .  S
C882        C885   1.450       .  S
C883        N890   1.157       .  T
C884        N889   1.157       .  T
C885        N887   1.157       .  T
C886        N888   1.157       .  T
C891        C892   1.413       .  A
C891        C896   1.413       .  A
C892        C893   1.425   1_556  A
C892        C897   1.447       .  S
C893        C894   1.418       .  A
C893        C900   1.447       .  S
C894        C895   1.418       .  A
C895        C896   1.402   1_554  A
C895        C898   1.456       .  S
C896        C899   1.455       .  S
C897        N904   1.157       .  T
C898        N903   1.157       .  T
C899        N901   1.157       .  T
C900        N902   1.157       .  T
C905        C906   1.413       .  A
C905        C910   1.411       .  A
C906        C907   1.411       .  A
C906        C911   1.450       .  S
C907        C908   1.410       .  A
C907        C914   1.450       .  S
C908        C909   1.411       .  A
C909        C910   1.399       .  A
C909        C912   1.455       .  S
C910        C913   1.452       .  S
C911        N918   1.157       .  T
C912        N917   1.157       .  T
C913        N915   1.157       .  T
C914        N916   1.157       .  T
C919        C920   1.416       .  A
C919        C924   1.416       .  A
C920        C921   1.423       .  A
C920        C925   1.448       .  S
C921        C922   1.413       .  A
C921        C928   1.448       .  S
C922        C923   1.413       .  A
C923        C924   1.412       .  A
C923        C926   1.451       .  S
C924        C927   1.452       .  S
C925        N932   1.157       .  T
C926        N931   1.156       .  T
C927        N929   1.157       .  T
C928        N930   1.157       .  T
C933        C934   1.410       .  A
C933        C938   1.409       .  A
C934        C935   1.413   1_556  A
C934        C939   1.447       .  S
C935        C936   1.410       .  A
C935        C942   1.448       .  S
C936        C937   1.408       .  A
C937        C938   1.399   1_554  A
C937        C940   1.453       .  S
C938        C941   1.451       .  S
C939        N946   1.157       .  T
C940        N945   1.157       .  T
C941        N943   1.156       .  T
C942        N944   1.157       .  T
C947        C948   1.420       .  A
C947        C952   1.422       .  A
C948        C949   1.408       .  A
C948        C953   1.451       .  S
C949        C950   1.406       .  A
C949        C956   1.451       .  S
C950        C951   1.403       .  A
C951        C952   1.406       .  A
C951        C954   1.450       .  S
C952        C955   1.453       .  S
C953        N960   1.157       .  T
C954        N959   1.157       .  T
C955        N957   1.158       .  T
C956        N958   1.157       .  T
C961        C962   1.419       .  A
C961        C966   1.411       .  A
C962        C963   1.414       .  A
C962        C967   1.453       .  S
C963        C964   1.414       .  A
C963        C970   1.452       .  S
C964        C965   1.422       .  A
C965        C966   1.417       .  A
C965        C968   1.451       .  S
C966        C969   1.451       .  S
C967        N974   1.157       .  T
C968        N973   1.157       .  T
C969        N971   1.157       .  T
C970        N972   1.157       .  T
C975        C976   1.415       .  A
C975        C980   1.410       .  A
C976        C977   1.406       .  A
C976        C981   1.452       .  S
C977        C978   1.406       .  A
C977        C984   1.451       .  S
C978        C979   1.411       .  A
C979        C980   1.407       .  A
C979        C982   1.452       .  S
C980        C983   1.451       .  S
C981        N988   1.157       .  T
C982        N987   1.157       .  T
C983        N985   1.157       .  T
C984        N986   1.157       .  T
C989        C990   1.414       .  A
C989        C994   1.413       .  A
C990        C991   1.409   1_565  A
C990        C995   1.452       .  S
C991        C992   1.415       .  A
C991        C998   1.452       .  S
C992        C993   1.413       .  A
C993        C994   1.405   1_545  A
C993        C996   1.453       .  S
C994        C997   1.453       .  S
C995       N1002   1.157       .  T
C996       N1001   1.157       .  T
C997        N999   1.157       .  T
C998       N1000   1.157       .  T
C1003      C1004   1.417       .  A
C1003      C1008   1.412       .  A
C1004      C1005   1.413       .  A
C1004      C1009   1.453       .  S
C1005      C1006   1.415       .  A
C1005      C1012   1.452       .  S
C1006      C1007   1.421       .  A
C1007      C1008   1.418       .  A
C1007      C1010   1.451       .  S
C1008      C1011   1.451       .  S
C1009      N1016   1.157       .  T
C1010      N1015   1.157       .  T
C1011      N1013   1.157       .  T
C1012      N1014   1.157       .  T
C1017      C1018   1.413       .  A
C1017      C1022   1.413       .  A
C1018      C1019   1.422   1_565  A
C1018      C1023   1.448       .  S
C1019      C1020   1.413       .  A
C1019      C1026   1.448       .  S
C1020      C1021   1.412       .  A
C1021      C1022   1.409   1_545  A
C1021      C1024   1.452       .  S
C1022      C1025   1.452       .  S
C1023      N1030   1.157       .  T
C1024      N1029   1.157       .  T
C1025      N1027   1.157       .  T
C1026      N1028   1.157       .  T
C1031      C1032   1.412       .  A
C1031      C1036   1.405       .  A
C1032      C1033   1.406       .  A
C1032      C1037   1.452       .  S
C1033      C1034   1.408       .  A
C1033      C1040   1.450       .  S
C1034      C1035   1.415       .  A
C1035      C1036   1.406       .  A
C1035      C1038   1.452       .  S
C1036      C1039   1.450       .  S
C1037      N1044   1.157       .  T
C1038      N1043   1.157       .  T
C1039      N1041   1.157       .  T
C1040      N1042   1.157       .  T
C1045      C1046   1.419       .  A
C1045      C1050   1.413       .  A
C1046      C1047   1.419       .  A
C1046      C1051   1.451       .  S
C1047      C1048   1.416       .  A
C1047      C1054   1.450       .  S
C1048      C1049   1.420       .  A
C1049      C1050   1.415       .  A
C1049      C1052   1.451       .  S
C1050      C1053   1.452       .  S
C1051      N1058   1.157       .  T
C1052      N1057   1.157       .  T
C1053      N1055   1.157       .  T
C1054      N1056   1.157       .  T
C1059      C1060   1.414       .  A
C1059      C1064   1.412       .  A
C1060      C1061   1.409       .  A
C1060      C1065   1.451       .  S
C1061      C1062   1.413       .  A
C1061      C1068   1.452       .  S
C1062      C1063   1.413       .  A
C1063      C1064   1.404       .  A
C1063      C1066   1.453       .  S
C1064      C1067   1.453       .  S
C1065      N1072   1.157       .  T
C1066      N1071   1.157       .  T
C1067      N1069   1.157       .  T
C1068      N1070   1.157       .  T
C1073      C1074   1.412       .  A
C1073      C1078   1.414       .  A
C1074      C1075   1.422       .  A
C1074      C1079   1.448       .  S
C1075      C1076   1.416       .  A
C1075      C1082   1.448       .  S
C1076      C1077   1.416       .  A
C1077      C1078   1.414       .  A
C1077      C1080   1.452       .  S
C1078      C1081   1.452       .  S
C1079      N1086   1.157       .  T
C1080      N1085   1.157       .  T
C1081      N1083   1.157       .  T
C1082      N1084   1.157       .  T
C1087      C1088   1.409       .  A
C1087      C1092   1.415       .  A
C1088      C1089   1.409       .  A
C1088      C1093   1.450       .  S
C1089      C1090   1.414       .  A
C1089      C1096   1.451       .  S
C1090      C1091   1.408       .  A
C1091      C1092   1.404       .  A
C1091      C1094   1.452       .  S
C1092      C1095   1.453       .  S
C1093      N1100   1.157       .  T
C1094      N1099   1.157       .  T
C1095      N1097   1.157       .  T
C1096      N1098   1.157       .  T
C1101      C1102   1.425       .  A
C1101      C1106   1.411       .  A
C1102      C1103   1.417       .  A
C1102      C1107   1.450       .  S
C1103      C1104   1.408       .  A
C1103      C1110   1.450       .  S
C1104      C1105   1.421       .  A
C1105      C1106   1.414       .  A
C1105      C1108   1.451       .  S
C1106      C1109   1.450       .  S
C1107      N1114   1.157       .  T
C1108      N1113   1.157       .  T
C1109      N1111   1.157       .  T
C1110      N1112   1.157       .  T
C1115      C1116   1.418       .  A
C1115      C1120   1.418       .  A
C1116      C1117   1.415   1_565  A
C1116      C1121   1.451       .  S
C1117      C1118   1.413       .  A
C1117      C1124   1.451       .  S
C1118      C1119   1.417       .  A
C1119      C1120   1.420   1_545  A
C1119      C1122   1.451       .  S
C1120      C1123   1.450       .  S
C1121      N1128   1.157       .  T
C1122      N1127   1.157       .  T
C1123      N1125   1.157       .  T
C1124      N1126   1.157       .  T
C1129      C1130   1.411       .  A
C1129      C1134   1.412       .  A
C1130      C1131   1.414       .  A
C1130      C1135   1.449       .  S
C1131      C1132   1.413       .  A
C1131      C1138   1.449       .  S
C1132      C1133   1.412       .  A
C1133      C1134   1.397       .  A
C1133      C1136   1.456       .  S
C1134      C1137   1.453       .  S
C1135      N1142   1.157       .  T
C1136      N1141   1.157       .  T
C1137      N1139   1.157       .  T
C1138      N1140   1.157       .  T
C1143      C1144   1.417       .  A
C1143      C1148   1.416       .  A
C1144      C1145   1.421       .  A
C1144      C1149   1.450       .  S
C1145      C1146   1.417       .  A
C1145      C1152   1.450       .  S
C1146      C1147   1.415       .  A
C1147      C1148   1.414       .  A
C1147      C1150   1.451       .  S
C1148      C1151   1.452       .  S
C1149      N1156   1.157       .  T
C1150      N1155   1.157       .  T
C1151      N1153   1.157       .  T
C1152      N1154   1.157       .  T
C1157      C1158   1.413       .  A
C1157      C1162   1.411       .  A
C1158      C1159   1.410   1_565  A
C1158      C1163   1.451       .  S
C1159      C1160   1.413       .  A
C1159      C1166   1.451       .  S
C1160      C1161   1.413       .  A
C1161      C1162   1.403   1_545  A
C1161      C1164   1.453       .  S
C1162      C1165   1.453       .  S
C1163      N1170   1.157       .  T
C1164      N1169   1.157       .  T
C1165      N1167   1.157       .  T
C1166      N1168   1.157       .  T
C1171      C1172   1.416       .  A
C1171      C1176   1.416       .  A
C1172      C1173   1.408       .  A
C1172      C1177   1.452       .  S
C1173      C1174   1.414       .  A
C1173      C1180   1.453       .  S
C1174      C1175   1.413       .  A
C1175      C1176   1.404       .  A
C1175      C1178   1.454       .  S
C1176      C1179   1.454       .  S
C1177      N1184   1.157       .  T
C1178      N1183   1.157       .  T
C1179      N1181   1.158       .  T
C1180      N1182   1.158       .  T
C1185      C1186   1.421       .  A
C1185      C1190   1.408       .  A
C1186      C1187   1.414       .  A
C1186      C1191   1.453       .  S
C1187      C1188   1.415       .  A
C1187      C1194   1.452       .  S
C1188      C1189   1.430       .  A
C1189      C1190   1.415       .  A
C1189      C1192   1.452       .  S
C1190      C1193   1.453       .  S
C1191      N1198   1.158       .  T
C1192      N1197   1.158       .  T
C1193      N1195   1.157       .  T
C1194      N1196   1.157       .  T
C1199      C1200   1.408       .  A
C1199      C1204   1.423       .  A
C1200      C1201   1.415       .  A
C1200      C1205   1.451       .  S
C1201      C1202   1.424       .  A
C1201      C1208   1.453       .  S
C1202      C1203   1.409       .  A
C1203      C1204   1.416       .  A
C1203      C1206   1.450       .  S
C1204      C1207   1.452       .  S
C1205      N1212   1.157       .  T
C1206      N1211   1.157       .  T
C1207      N1209   1.157       .  T
C1208      N1210   1.158       .  T
C1213      C1214   1.410       .  A
C1213      C1218   1.415       .  A
C1214      C1215   1.402       .  A
C1214      C1219   1.452       .  S
C1215      C1216   1.416       .  A
C1215      C1222   1.454       .  S
C1216      C1217   1.414       .  A
C1217      C1218   1.411       .  A
C1217      C1220   1.451       .  S
C1218      C1221   1.452       .  S
C1219      N1226   1.157       .  T
C1220      N1225   1.157       .  T
C1221      N1223   1.157       .  T
C1222      N1224   1.157       .  T
C1227      C1228   1.406       .  A
C1227      C1232   1.408       .  A
C1228      C1229   1.399       .  A
C1228      C1233   1.457       .  S
C1229      C1230   1.421       .  A
C1229      C1236   1.450       .  S
C1230      C1231   1.421       .  A
C1231      C1232   1.412       .  A
C1231      C1234   1.451       .  S
C1232      C1235   1.451       .  S
C1233      N1240   1.157       .  T
C1234      N1239   1.158       .  T
C1235      N1237   1.157       .  T
C1236      N1238   1.157       .  T
C1241      C1242   1.409       .  A
C1241      C1246   1.416       .  A
C1242      C1243   1.413       .  A
C1242      C1247   1.451       .  S
C1243      C1244   1.420       .  A
C1243      C1250   1.452       .  S
C1244      C1245   1.411       .  A
C1245      C1246   1.412       .  A
C1245      C1248   1.451       .  S
C1246      C1249   1.451       .  S
C1247      N1254   1.157       .  T
C1248      N1253   1.157       .  T
C1249      N1251   1.157       .  T
C1250      N1252   1.157       .  T
C1255      C1256   1.414       .  A
C1255      C1260   1.413       .  A
C1256      C1257   1.423       .  A
C1256      C1261   1.447       .  S
C1257      C1258   1.413       .  A
C1257      C1264   1.447       .  S
C1258      C1259   1.412       .  A
C1259      C1260   1.404       .  A
C1259      C1262   1.454       .  S
C1260      C1263   1.452       .  S
C1261      N1268   1.157       .  T
C1262      N1267   1.157       .  T
C1263      N1265   1.156       .  T
C1264      N1266   1.157       .  T
C1269      C1270   1.411       .  A
C1269      C1274   1.417       .  A
C1270      C1271   1.409       .  A
C1270      C1275   1.450       .  S
C1271      C1272   1.412       .  A
C1271      C1278   1.451       .  S
C1272      C1273   1.407       .  A
C1273      C1274   1.404       .  A
C1273      C1276   1.452       .  S
C1274      C1277   1.451       .  S
C1275      N1282   1.157       .  T
C1276      N1281   1.157       .  T
C1277      N1279   1.156       .  T
C1278      N1280   1.157       .  T
C1283      C1284   1.425       .  A
C1283      C1288   1.416       .  A
C1284      C1285   1.417       .  A
C1284      C1289   1.451       .  S
C1285      C1286   1.408       .  A
C1285      C1292   1.451       .  S
C1286      C1287   1.416       .  A
C1287      C1288   1.417       .  A
C1287      C1290   1.452       .  S
C1288      C1291   1.451       .  S
C1289      N1296   1.157       .  T
C1290      N1295   1.157       .  T
C1291      N1293   1.157       .  T
C1292      N1294   1.157       .  T
C1297      C1298   1.413       .  A
C1297      C1302   1.410       .  A
C1298      C1299   1.410   1_655  A
C1298      C1303   1.451       .  S
C1299      C1300   1.412       .  A
C1299      C1306   1.451       .  S
C1300      C1301   1.414       .  A
C1301      C1302   1.401   1_455  A
C1301      C1304   1.453       .  S
C1302      C1305   1.453       .  S
C1303      N1310   1.157       .  T
C1304      N1309   1.157       .  T
C1305      N1307   1.157       .  T
C1306      N1308   1.157       .  T
C1311      C1312   1.415       .  A
C1311      C1316   1.407       .  A
C1312      C1313   1.415       .  A
C1312      C1317   1.452       .  S
C1313      C1314   1.417       .  A
C1313      C1320   1.451       .  S
C1314      C1315   1.426       .  A
C1315      C1316   1.416       .  A
C1315      C1318   1.452       .  S
C1316      C1319   1.451       .  S
C1317      N1324   1.157       .  T
C1318      N1323   1.157       .  T
C1319      N1321   1.157       .  T
C1320      N1322   1.157       .  T
C1325      C1326   1.415       .  A
C1325      C1330   1.416       .  A
C1326      C1327   1.407   1_655  A
C1326      C1331   1.456       .  S
C1327      C1328   1.414       .  A
C1327      C1334   1.450       .  S
C1328      C1329   1.415       .  A
C1329      C1330   1.427   1_455  A
C1329      C1332   1.447       .  S
C1330      C1333   1.447       .  S
C1331      N1338   1.158       .  T
C1332      N1337   1.157       .  T
C1333      N1335   1.157       .  T
C1334      N1336   1.155       .  T
C1339      C1340   1.418       .  A
C1339      C1344   1.412       .  A
C1340      C1341   1.405       .  A
C1340      C1345   1.453       .  S
C1341      C1342   1.405       .  A
C1341      C1348   1.452       .  S
C1342      C1343   1.410       .  A
C1343      C1344   1.407       .  A
C1343      C1346   1.452       .  S
C1344      C1347   1.451       .  S
C1345      N1352   1.157       .  T
C1346      N1351   1.157       .  T
C1347      N1349   1.157       .  T
C1348      N1350   1.157       .  T
C1353      C1354   1.410       .  A
C1353      C1358   1.422       .  A
C1354      C1355   1.415       .  A
C1354      C1359   1.451       .  S
C1355      C1356   1.420       .  A
C1355      C1362   1.449       .  S
C1356      C1357   1.411       .  A
C1357      C1358   1.418       .  A
C1357      C1360   1.450       .  S
C1358      C1361   1.450       .  S
C1359      N1366   1.157       .  T
C1360      N1365   1.157       .  T
C1361      N1363   1.157       .  T
C1362      N1364   1.157       .  T
C1367      C1368   1.416       .  A
C1367      C1372   1.417       .  A
C1368      C1369   1.421       .  A
C1368      C1373   1.449       .  S
C1369      C1370   1.415       .  A
C1369      C1376   1.450       .  S
C1370      C1371   1.415       .  A
C1371      C1372   1.416       .  A
C1371      C1374   1.452       .  S
C1372      C1375   1.451       .  S
C1373      N1380   1.157       .  T
C1374      N1379   1.157       .  T
C1375      N1377   1.157       .  T
C1376      N1378   1.157       .  T
C1381      C1382   1.412       .  A
C1381      C1386   1.412       .  A
C1382      C1383   1.395   1_655  A
C1382      C1387   1.454       .  S
C1383      C1384   1.406       .  A
C1383      C1390   1.452       .  S
C1384      C1385   1.411       .  A
C1385      C1386   1.414   1_455  A
C1385      C1388   1.448       .  S
C1386      C1389   1.448       .  S
C1387      N1394   1.157       .  T
C1388      N1393   1.157       .  T
C1389      N1391   1.157       .  T
C1390      N1392   1.157       .  T
C1395      C1396   1.411       .  A
C1395      C1400   1.413       .  A
C1396      C1397   1.407   1_655  A
C1396      C1401   1.455       .  S
C1397      C1398   1.422       .  A
C1397      C1404   1.453       .  S
C1398      C1399   1.420       .  A
C1399      C1400   1.424   1_455  A
C1399      C1402   1.449       .  S
C1400      C1403   1.449       .  S
C1401      N1408   1.157       .  T
C1402      N1407   1.157       .  T
C1403      N1405   1.157       .  T
C1404      N1406   1.157       .  T
C1409      C1410   1.409       .  A
C1409      C1414   1.409       .  A
C1410      C1411   1.402       .  A
C1410      C1415   1.453       .  S
C1411      C1412   1.409       .  A
C1411      C1418   1.453       .  S
C1412      C1413   1.409       .  A
C1413      C1414   1.410       .  A
C1413      C1416   1.449       .  S
C1414      C1417   1.449       .  S
C1415      N1422   1.157       .  T
C1416      N1421   1.157       .  T
C1417      N1419   1.157       .  T
C1418      N1420   1.157       .  T
C1423      C1424   1.417       .  A
C1423      C1428   1.412       .  A
C1424      C1425   1.407       .  A
C1424      C1429   1.452       .  S
C1425      C1426   1.406       .  A
C1425      C1432   1.451       .  S
C1426      C1427   1.412       .  A
C1427      C1428   1.408       .  A
C1427      C1430   1.452       .  S
C1428      C1431   1.451       .  S
C1429      N1436   1.157       .  T
C1430      N1435   1.157       .  T
C1431      N1433   1.157       .  T
C1432      N1434   1.157       .  T
C1437      C1438   1.410       .  A
C1437      C1442   1.410       .  A
C1438      C1439   1.414       .  A
C1438      C1443   1.451       .  S
C1439      C1440   1.420       .  A
C1439      C1446   1.451       .  S
C1440      C1441   1.417       .  A
C1441      C1442   1.411       .  A
C1441      C1444   1.451       .  S
C1442      C1445   1.452       .  S
C1443      N1450   1.157       .  T
C1444      N1449   1.157       .  T
C1445      N1447   1.157       .  T
C1446      N1448   1.157       .  T
C1451      C1452   1.426       .  A
C1451      C1456   1.416       .  A
C1452      C1453   1.416       .  A
C1452      C1457   1.452       .  S
C1453      C1454   1.408       .  A
C1453      C1460   1.451       .  S
C1454      C1455   1.417       .  A
C1455      C1456   1.414       .  A
C1455      C1458   1.451       .  S
C1456      C1459   1.451       .  S
C1457      N1464   1.158       .  T
C1458      N1463   1.157       .  T
C1459      N1461   1.157       .  T
C1460      N1462   1.157       .  T
C1465      C1466   1.406       .  A
C1465      C1470   1.412       .  A
C1466      C1467   1.406       .  A
C1466      C1471   1.450       .  S
C1467      C1468   1.414       .  A
C1467      C1474   1.452       .  S
C1468      C1469   1.408       .  A
C1469      C1470   1.406       .  A
C1469      C1472   1.450       .  S
C1470      C1473   1.452       .  S
C1471      N1478   1.157       .  T
C1472      N1477   1.157       .  T
C1473      N1475   1.157       .  T
C1474      N1476   1.157       .  T
C1479      C1480   1.422       .  A
C1479      C1484   1.412       .  A
C1480      C1481   1.416       .  A
C1480      C1485   1.452       .  S
C1481      C1482   1.409       .  A
C1481      C1488   1.450       .  S
C1482      C1483   1.417       .  A
C1483      C1484   1.414       .  A
C1483      C1486   1.452       .  S
C1484      C1487   1.451       .  S
C1485      N1492   1.158       .  T
C1486      N1491   1.157       .  T
C1487      N1489   1.157       .  T
C1488      N1490   1.157       .  T
C1493      C1494   1.418       .  A
C1493      C1498   1.418       .  A
C1494      C1495   1.405       .  A
C1494      C1499   1.452       .  S
C1495      C1496   1.412       .  A
C1495      C1502   1.454       .  S
C1496      C1497   1.415       .  A
C1497      C1498   1.410       .  A
C1497      C1500   1.452       .  S
C1498      C1501   1.452       .  S
C1499      N1506   1.157       .  T
C1500      N1505   1.158       .  T
C1501      N1503   1.158       .  T
C1502      N1504   1.157       .  T
C1507      C1508   1.421       .  A
C1507      C1512   1.415       .  A
C1508      C1509   1.414       .  A
C1508      C1513   1.451       .  S
C1509      C1510   1.409       .  A
C1509      C1516   1.452       .  S
C1510      C1511   1.415       .  A
C1511      C1512   1.413       .  A
C1511      C1514   1.453       .  S
C1512      C1515   1.451       .  S
C1513      N1520   1.157       .  T
C1514      N1519   1.157       .  T
C1515      N1517   1.157       .  T
C1516      N1518   1.157       .  T
C1521      C1522   1.418       .  A
C1521      C1526   1.417       .  A
C1522      C1523   1.422       .  A
C1522      C1527   1.449       .  S
C1523      C1524   1.414       .  A
C1523      C1530   1.449       .  S
C1524      C1525   1.413       .  A
C1525      C1526   1.408       .  A
C1525      C1528   1.453       .  S
C1526      C1529   1.452       .  S
C1527      N1534   1.157       .  T
C1528      N1533   1.157       .  T
C1529      N1531   1.156       .  T
C1530      N1532   1.157       .  T
C1535      C1536   1.407       .  A
C1535      C1540   1.412       .  A
C1536      C1537   1.407       .  A
C1536      C1541   1.451       .  S
C1537      C1538   1.414       .  A
C1537      C1544   1.452       .  S
C1538      C1539   1.409       .  A
C1539      C1540   1.405       .  A
C1539      C1542   1.450       .  S
C1540      C1543   1.452       .  S
C1541      N1548   1.157       .  T
C1542      N1547   1.157       .  T
C1543      N1545   1.157       .  T
C1544      N1546   1.157       .  T
C1549      C1550   1.410       .  A
C1549      C1554   1.410       .  A
C1550      C1551   1.409   1_565  A
C1550      C1555   1.451       .  S
C1551      C1552   1.416       .  A
C1551      C1558   1.451       .  S
C1552      C1553   1.413       .  A
C1553      C1554   1.401   1_545  A
C1553      C1556   1.453       .  S
C1554      C1557   1.453       .  S
C1555      N1562   1.157       .  T
C1556      N1561   1.157       .  T
C1557      N1559   1.157       .  T
C1558      N1560   1.157       .  T
C1563      C1564   1.421       .  A
C1563      C1568   1.414       .  A
C1564      C1565   1.414       .  A
C1564      C1569   1.452       .  S
C1565      C1566   1.409       .  A
C1565      C1572   1.451       .  S
C1566      C1567   1.415       .  A
C1567      C1568   1.415       .  A
C1567      C1570   1.451       .  S
C1568      C1571   1.450       .  S
C1569      N1576   1.157       .  T
C1570      N1575   1.157       .  T
C1571      N1573   1.157       .  T
C1572      N1574   1.157       .  T
C1577      C1578   1.416       .  A
C1577      C1582   1.418       .  A
C1578      C1579   1.425   1_545  A
C1578      C1583   1.447       .  S
C1579      C1580   1.413       .  A
C1579      C1586   1.447       .  S
C1580      C1581   1.412       .  A
C1581      C1582   1.407   1_565  A
C1581      C1584   1.453       .  S
C1582      C1585   1.454       .  S
C1583      N1590   1.157       .  T
C1584      N1589   1.157       .  T
C1585      N1587   1.158       .  T
C1586      N1588   1.157       .  T
C1591      C1592   1.408       .  A
C1591      C1596   1.403       .  A
C1592      C1593   1.409       .  A
C1592      C1597   1.452       .  S
C1593      C1594   1.417       .  A
C1593      C1600   1.451       .  S
C1594      C1595   1.420       .  A
C1595      C1596   1.403       .  A
C1595      C1598   1.452       .  S
C1596      C1599   1.453       .  S
C1597      N1604   1.157       .  T
C1598      N1603   1.158       .  T
C1599      N1601   1.157       .  T
C1600      N1602   1.157       .  T
C1605      C1606   1.421       .  A
C1605      C1610   1.414       .  A
C1606      C1607   1.418       .  A
C1606      C1611   1.452       .  S
C1607      C1608   1.415       .  A
C1607      C1614   1.451       .  S
C1608      C1609   1.421       .  A
C1609      C1610   1.416       .  A
C1609      C1612   1.451       .  S
C1610      C1613   1.452       .  S
C1611      N1618   1.158       .  T
C1612      N1617   1.157       .  T
C1613      N1615   1.157       .  T
C1614      N1616   1.157       .  T
C1619      C1620   1.415       .  A
C1619      C1624   1.415       .  A
C1620      C1621   1.419   1_565  A
C1620      C1625   1.450       .  S
C1621      C1622   1.416       .  A
C1621      C1628   1.450       .  S
C1622      C1623   1.417       .  A
C1623      C1624   1.415   1_545  A
C1623      C1626   1.450       .  S
C1624      C1627   1.452       .  S
C1625      N1632   1.157       .  T
C1626      N1631   1.157       .  T
C1627      N1629   1.157       .  T
C1628      N1630   1.157       .  T
C1633      C1634   1.410       .  A
C1633      C1638   1.409       .  A
C1634      C1635   1.411       .  A
C1634      C1639   1.448       .  S
C1635      C1636   1.411       .  A
C1635      C1642   1.449       .  S
C1636      C1637   1.412       .  A
C1637      C1638   1.399       .  A
C1637      C1640   1.454       .  S
C1638      C1641   1.454       .  S
C1639      N1646   1.157       .  T
C1640      N1645   1.157       .  T
C1641      N1643   1.157       .  T
C1642      N1644   1.157       .  T
C1647      C1648   1.414       .  A
C1647      C1652   1.416       .  A
C1648      C1649   1.424       .  A
C1648      C1653   1.448       .  S
C1649      C1650   1.414       .  A
C1649      C1656   1.448       .  S
C1650      C1651   1.412       .  A
C1651      C1652   1.410       .  A
C1651      C1654   1.451       .  S
C1652      C1655   1.452       .  S
C1653      N1660   1.157       .  T
C1654      N1659   1.157       .  T
C1655      N1657   1.156       .  T
C1656      N1658   1.157       .  T
C1661      C1662   1.410       .  A
C1661      C1666   1.411       .  A
C1662      C1663   1.413   1_565  A
C1662      C1667   1.449       .  S
C1663      C1664   1.410       .  A
C1663      C1670   1.447       .  S
C1664      C1665   1.408       .  A
C1665      C1666   1.398   1_545  A
C1665      C1668   1.455       .  S
C1666      C1669   1.452       .  S
C1667      N1674   1.157       .  T
C1668      N1673   1.157       .  T
C1669      N1671   1.157       .  T
C1670      N1672   1.157       .  T
C1675      C1676   1.413       .  A
C1675      C1680   1.412       .  A
C1676      C1677   1.407       .  A
C1676      C1681   1.453       .  S
C1677      C1678   1.416       .  A
C1677      C1684   1.453       .  S
C1678      C1679   1.417       .  A
C1679      C1680   1.410       .  A
C1679      C1682   1.452       .  S
C1680      C1683   1.451       .  S
C1681      N1688   1.157       .  T
C1682      N1687   1.158       .  T
C1683      N1685   1.157       .  T
C1684      N1686   1.157       .  T
C1689      C1690   1.413       .  A
C1689      C1694   1.413       .  A
C1690      C1691   1.412       .  A
C1690      C1695   1.452       .  S
C1691      C1692   1.414       .  A
C1691      C1698   1.449       .  S
C1692      C1693   1.418       .  A
C1693      C1694   1.420       .  A
C1693      C1696   1.450       .  S
C1694      C1697   1.449       .  S
C1695      N1702   1.157       .  T
C1696      N1701   1.157       .  T
C1697      N1699   1.157       .  T
C1698      N1700   1.156       .  T
C1703      C1704   1.410       .  A
C1703      C1708   1.419       .  A
C1704      C1705   1.418       .  A
C1704      C1709   1.451       .  S
C1705      C1706   1.425       .  A
C1705      C1712   1.452       .  S
C1706      C1707   1.417       .  A
C1707      C1708   1.417       .  A
C1707      C1710   1.451       .  S
C1708      C1711   1.453       .  S
C1709      N1716   1.157       .  T
C1710      N1715   1.157       .  T
C1711      N1713   1.157       .  T
C1712      N1714   1.157       .  T
C1717      C1718   1.425       .  A
C1717      C1722   1.423       .  A
C1718      C1719   1.405       .  A
C1718      C1723   1.453       .  S
C1719      C1720   1.407       .  A
C1719      C1726   1.452       .  S
C1720      C1721   1.409       .  A
C1721      C1722   1.410       .  A
C1721      C1724   1.451       .  S
C1722      C1725   1.452       .  S
C1723      N1730   1.158       .  T
C1724      N1729   1.157       .  T
C1725      N1727   1.158       .  T
C1726      N1728   1.157       .  T
C1731      C1732   1.414       .  A
C1731      C1736   1.431       .  A
C1732      C1733   1.417       .  A
C1732      C1737   1.452       .  S
C1733      C1734   1.421       .  A
C1733      C1740   1.450       .  S
C1734      C1735   1.407       .  A
C1735      C1736   1.417       .  A
C1735      C1738   1.452       .  S
C1736      C1739   1.451       .  S
C1737      N1744   1.157       .  T
C1738      N1743   1.157       .  T
C1739      N1741   1.157       .  T
C1740      N1742   1.156       .  T
C1745      C1746   1.416       .  A
C1745      C1750   1.418       .  A
C1746      C1747   1.398       .  A
C1746      C1751   1.455       .  S
C1747      C1748   1.410       .  A
C1747      C1754   1.455       .  S
C1748      C1749   1.408       .  A
C1749      C1750   1.413       .  A
C1749      C1752   1.450       .  S
C1750      C1753   1.449       .  S
C1751      N1758   1.158       .  T
C1752      N1757   1.157       .  T
C1753      N1755   1.157       .  T
C1754      N1756   1.157       .  T
C1759      C1760   1.412       .  A
C1759      C1764   1.411       .  A
C1760      C1761   1.418       .  A
C1760      C1765   1.450       .  S
C1761      C1762   1.419       .  A
C1761      C1768   1.450       .  S
C1762      C1763   1.414       .  A
C1763      C1764   1.411       .  A
C1763      C1766   1.449       .  S
C1764      C1767   1.452       .  S
C1765      N1772   1.157       .  T
C1766      N1771   1.156       .  T
C1767      N1769   1.157       .  T
C1768      N1770   1.157       .  T
C1773      C1774   1.428       .  A
C1773      C1778   1.426       .  A
C1774      C1775   1.407       .  A
C1774      C1779   1.454       .  S
C1775      C1776   1.408       .  A
C1775      C1782   1.455       .  S
C1776      C1777   1.409       .  A
C1777      C1778   1.427       .  A
C1777      C1780   1.448       .  S
C1778      C1781   1.448       .  S
C1779      N1786   1.158       .  T
C1780      N1785   1.157       .  T
C1781      N1783   1.157       .  T
C1782      N1784   1.157       .  T
C1787      C1788   1.412       .  A
C1787      C1792   1.417       .  A
C1788      C1789   1.407       .  A
C1788      C1793   1.451       .  S
C1789      C1790   1.409       .  A
C1789      C1796   1.449       .  S
C1790      C1791   1.406       .  A
C1791      C1792   1.406       .  A
C1791      C1794   1.451       .  S
C1792      C1795   1.452       .  S
C1793      N1800   1.157       .  T
C1794      N1799   1.157       .  T
C1795      N1797   1.157       .  T
C1796      N1798   1.156       .  T
C1801      C1802   1.417       .  A
C1801      C1806   1.415       .  A
C1802      C1803   1.423       .  A
C1802      C1807   1.451       .  S
C1803      C1804   1.424       .  A
C1803      C1810   1.450       .  S
C1804      C1805   1.427       .  A
C1805      C1806   1.417       .  A
C1805      C1808   1.453       .  S
C1806      C1809   1.453       .  S
C1807      N1814   1.157       .  T
C1808      N1813   1.158       .  T
C1809      N1811   1.157       .  T
C1810      N1812   1.157       .  T
C1815      C1816   1.409       .  A
C1815      C1820   1.410       .  A
C1816      C1817   1.403   1_655  A
C1816      C1821   1.452       .  S
C1817      C1818   1.409       .  A
C1817      C1824   1.452       .  S
C1818      C1819   1.409       .  A
C1819      C1820   1.409   1_455  A
C1819      C1822   1.450       .  S
C1820      C1823   1.450       .  S
C1821      N1828   1.157       .  T
C1822      N1827   1.157       .  T
C1823      N1825   1.157       .  T
C1824      N1826   1.157       .  T
C1829      C1830   1.421       .  A
C1829      C1834   1.410       .  A
C1830      C1831   1.418       .  A
C1830      C1835   1.453       .  S
C1831      C1832   1.416       .  A
C1831      C1838   1.451       .  S
C1832      C1833   1.427       .  A
C1833      C1834   1.418       .  A
C1833      C1836   1.452       .  S
C1834      C1837   1.451       .  S
C1835      N1842   1.157       .  T
C1836      N1841   1.158       .  T
C1837      N1839   1.157       .  T
C1838      N1840   1.157       .  T
C1843      C1844   1.413       .  A
C1843      C1848   1.413       .  A
C1844      C1845   1.416   1_455  A
C1844      C1849   1.453       .  S
C1845      C1846   1.424       .  A
C1845      C1852   1.452       .  S
C1846      C1847   1.424       .  A
C1847      C1848   1.422   1_655  A
C1847      C1850   1.450       .  S
C1848      C1851   1.450       .  S
C1849      N1856   1.157       .  T
C1850      N1855   1.158       .  T
C1851      N1853   1.157       .  T
C1852      N1854   1.158       .  T
C1857      C1858   1.416       .  A
C1857      C1862   1.420       .  A
C1858      C1859   1.409       .  A
C1858      C1863   1.451       .  S
C1859      C1860   1.408       .  A
C1859      C1866   1.451       .  S
C1860      C1861   1.405       .  A
C1861      C1862   1.404       .  A
C1861      C1864   1.454       .  S
C1862      C1865   1.453       .  S
C1863      N1870   1.157       .  T
C1864      N1869   1.157       .  T
C1865      N1867   1.157       .  T
C1866      N1868   1.157       .  T
C1871      C1872   1.420       .  A
C1871      C1876   1.407       .  A
C1872      C1873   1.419       .  A
C1872      C1877   1.453       .  S
C1873      C1874   1.419       .  A
C1873      C1880   1.451       .  S
C1874      C1875   1.433       .  A
C1875      C1876   1.420       .  A
C1875      C1878   1.452       .  S
C1876      C1879   1.451       .  S
C1877      N1884   1.157       .  T
C1878      N1883   1.158       .  T
C1879      N1881   1.157       .  T
C1880      N1882   1.158       .  T
C1885      C1886   1.413       .  A
C1885      C1890   1.414       .  A
C1886      C1887   1.418       .  A
C1886      C1891   1.451       .  S
C1887      C1888   1.419       .  A
C1887      C1894   1.451       .  S
C1888      C1889   1.417       .  A
C1889      C1890   1.418       .  A
C1889      C1892   1.450       .  S
C1890      C1893   1.451       .  S
C1891      N1898   1.157       .  T
C1892      N1897   1.157       .  T
C1893      N1895   1.157       .  T
C1894      N1896   1.157       .  T
C1899      C1900   1.409       .  A
C1899      C1904   1.407       .  A
C1900      C1901   1.411   1_455  A
C1900      C1905   1.449       .  S
C1901      C1902   1.410       .  A
C1901      C1908   1.450       .  S
C1902      C1903   1.411       .  A
C1903      C1904   1.402   1_655  A
C1903      C1906   1.452       .  S
C1904      C1907   1.452       .  S
C1905      N1912   1.157       .  T
C1906      N1911   1.157       .  T
C1907      N1909   1.157       .  T
C1908      N1910   1.157       .  T
C1913      C1914   1.424       .  A
C1913      C1918   1.424       .  A
C1914      C1915   1.421       .  A
C1914      C1919   1.453       .  S
C1915      C1916   1.424       .  A
C1915      C1922   1.453       .  S
C1916      C1917   1.418       .  A
C1917      C1918   1.421       .  A
C1917      C1920   1.452       .  S
C1918      C1921   1.450       .  S
C1919      N1926   1.157       .  T
C1920      N1925   1.157       .  T
C1921      N1923   1.157       .  T
C1922      N1924   1.158       .  T
C1927      C1928   1.414       .  A
C1927      C1932   1.415       .  A
C1928      C1929   1.422   1_455  A
C1928      C1933   1.448       .  S
C1929      C1930   1.416       .  A
C1929      C1936   1.449       .  S
C1930      C1931   1.413       .  A
C1931      C1932   1.412   1_655  A
C1931      C1934   1.450       .  S
C1932      C1935   1.450       .  S
C1933      N1940   1.157       .  T
C1934      N1939   1.156       .  T
C1935      N1937   1.156       .  T
C1936      N1938   1.157       .  T
C1941      C1942   1.411       .  A
C1941      C1946   1.409       .  A
C1942      C1943   1.413       .  A
C1942      C1947   1.447       .  S
C1943      C1944   1.409       .  A
C1943      C1950   1.449       .  S
C1944      C1945   1.411       .  A
C1945      C1946   1.398       .  A
C1945      C1948   1.453       .  S
C1946      C1949   1.455       .  S
C1947      N1954   1.157       .  T
C1948      N1953   1.157       .  T
C1949      N1951   1.157       .  T
C1950      N1952   1.157       .  T
C1955      C1956   1.420       .  A
C1955      C1960   1.422       .  A
C1956      C1957   1.408       .  A
C1956      C1961   1.452       .  S
C1957      C1958   1.410       .  A
C1957      C1964   1.453       .  S
C1958      C1959   1.407       .  A
C1959      C1960   1.409       .  A
C1959      C1962   1.453       .  S
C1960      C1963   1.452       .  S
C1961      N1968   1.157       .  T
C1962      N1967   1.157       .  T
C1963      N1965   1.158       .  T
C1964      N1966   1.157       .  T
