geometry optimzed in LAMMPS
_audit_creation_date              2020-11-30 
_audit_creation_method            'lammps2cif' 
_symmetry_space_group_name_H-M    'P1' 
_symmetry_Int_Tables_number       1 
_symmetry_cell_setting            triclinic 
loop_ 
_symmetry_equiv_pos_as_xyz 
  x,y,z 
_cell_length_a                    25.055266283484187 
_cell_length_b                    23.05409673664639 
_cell_length_c                    30.29086065365996 
_cell_angle_alpha                 90.05794060977179 
_cell_angle_beta                  90.05405906132913 
_cell_angle_gamma                 84.89434020102019 
loop_ 
_atom_site_label 
_atom_site_type_symbol 
_atom_site_fract_x 
_atom_site_fract_y 
_atom_site_fract_z 
_atom_site_charge 
C1          C  0.50423142  0.24408100  0.52196301     0.02800
C2          C  0.00402222  0.24476615  0.47722065     0.02800
C3          C  0.25275644  0.00164236  0.47744733     0.02800
C4          C  0.25379917  0.50077068  0.52170701     0.02800
C5          C  0.20691397  0.40964022  0.61835762     0.44690
N6          N  0.19545274  0.35635945  0.67446328     0.03580
C7          C  0.40305442  0.24278214  0.80815199    -0.04290
H8          H  0.41886721  0.18651583  0.63706337     0.09070
C9          C  0.25423669  0.08864329  0.64565814    -0.04650
Co10       Co  0.29794629  0.33709755  0.72418500     0.74180
N11         N  0.36767678  0.24432554  0.67788183    -0.23820
Co12       Co  0.34219442  0.19096007  0.72668686     0.74070
C13         C  0.30394674  0.08230216  0.62168918     0.44790
N14         N  0.15825860  0.19095874  0.67454163     0.03200
N15         N  0.31430159  0.13534992  0.67835577     0.03300
N16         N  0.36991201  0.33706671  0.80279511    -0.44670
H17         H  0.29453777  0.41909834  0.63557048     0.09060
N18         N  0.35138255  0.30030145  0.67553333     0.03590
N19         N  0.31364694  0.13908616  0.77571898     0.03330
C20         C  0.30868031  0.08964152  0.83511612     0.44930
N21         N  0.14248827  0.24716936  0.67505341    -0.23280
C22         C  0.24915356  0.40247317  0.80886266    -0.04200
N23         N  0.17020279  0.37996323  0.63928047    -0.44390
N24         N  0.34169407  0.11880752  0.81023614    -0.44610
C25         C  0.19650128  0.40711544  0.82992181     0.44710
N26         N  0.34963331  0.30458979  0.77235753     0.03580
N27         N  0.13783522  0.24657135  0.77091317    -0.23300
N28         N  0.24578710  0.36864738  0.67636174    -0.23790
N29         N  0.15599434  0.19105785  0.77139753     0.03220
H30         H  0.07567579  0.29541722  0.80883246     0.09110
H31         H  0.21940978  0.07726591  0.82321710     0.09140
N32         N  0.36793194  0.24920404  0.77428481    -0.23840
N33         N  0.26406731  0.12257261  0.67966550    -0.23460
N34         N  0.19289291  0.35605193  0.77144348     0.03580
C35         C  0.40156728  0.28264223  0.61897209     0.44980
C36         C  0.11135555  0.26073118  0.64023372    -0.04710
N37         N  0.26345031  0.12556866  0.77622237    -0.23450
H38         H  0.21609561  0.07265972  0.63766749     0.09130
N39         N  0.37091680  0.32539975  0.64014959    -0.44680
H40         H  0.09272502  0.30353444  0.63220698     0.09110
C41         C  0.09666372  0.19737547  0.82182227     0.44810
C42         C  0.25640641  0.40252058  0.64260924    -0.04200
Co43       Co  0.16599881  0.30249245  0.72304869     0.73820
N44         N  0.13899515  0.16437842  0.63961905    -0.44390
C45         C  0.40334133  0.30147845  0.82691866     0.45080
N46         N  0.16397138  0.37725365  0.80510718    -0.44380
Co47       Co  0.20999474  0.15611188  0.72554628     0.73890
C48         C  0.25641174  0.09401350  0.81297584    -0.04710
C49         C  0.39988470  0.22954190  0.64389989    -0.04270
N50         N  0.24299641  0.36972272  0.77262214    -0.23800
N51         N  0.33991734  0.11270475  0.64300818    -0.44560
H52         H  0.42593504  0.20277726  0.81773090     0.09090
C53         C  0.09955846  0.25497428  0.80209859    -0.04690
Cl54       Cl  0.25401654  0.24663738  0.72499600    -0.47690
C55         C  0.10956393  0.20657163  0.61676194     0.44840
H56         H  0.28584462  0.41957891  0.81953958     0.09050
N57         N  0.13231273  0.16021692  0.80100486    -0.44400
C58         C  0.10986068  0.20159363  0.38222910     0.44690
N59         N  0.14260915  0.23675419  0.32412839     0.03580
C60         C  0.35109119  0.12820712  0.18973047    -0.04290
H61         H  0.38662510  0.13041754  0.37034812     0.09070
C62         C  0.36274738  0.33801589  0.36229463    -0.04650
Co63       Co  0.21863347  0.15319173  0.27374176     0.74180
N64         N  0.32261460  0.14401743  0.32209324    -0.23820
Co65       Co  0.34562342  0.20289551  0.27422986     0.74070
C66         C  0.39856607  0.29162725  0.38254631     0.44790
N67         N  0.23324069  0.37040049  0.32425171     0.03200
N68         N  0.36537486  0.25914185  0.32345647     0.03300
N69         N  0.26820169  0.09610309  0.18772160    -0.44670
H70         H  0.15504322  0.11120745  0.37010492     0.09060
N71         N  0.27445025  0.12521986  0.32033146     0.03590
N72         N  0.36599174  0.26413496  0.22695155     0.03330
C73         C  0.40029526  0.31068495  0.17470227     0.44930
N74         N  0.18488669  0.35210779  0.32557280    -0.23280
C75         C  0.14112532  0.15219602  0.19593198    -0.04200
N76         N  0.11039433  0.24988663  0.35778175    -0.44390
N77         N  0.40224569  0.25806991  0.19482051    -0.44610
C78         C  0.10092257  0.19292532  0.17629697     0.44710
N79         N  0.27477470  0.12843879  0.22347342     0.03580
N80         N  0.18342475  0.35203746  0.22877357    -0.23300
N81         N  0.16380021  0.18218960  0.32430940    -0.23790
N82         N  0.23143226  0.37153058  0.22776954     0.03220
H83         H  0.11479236  0.36300992  0.18568717     0.09110
H84         H  0.35091027  0.39588954  0.19190612     0.09140
N85         N  0.32283812  0.14784493  0.22489345    -0.23840
N86         N  0.34376072  0.31344216  0.32560330    -0.23460
N87         N  0.13953109  0.23644333  0.22798701     0.03580
C88         C  0.30801900  0.08680960  0.37913261     0.44980
C89         C  0.15980616  0.37493607  0.36185884    -0.04710
N90         N  0.34255735  0.31759146  0.22892794    -0.23450
H91         H  0.35227161  0.38204371  0.37362385     0.09130
N92         N  0.26421326  0.09136593  0.35367376    -0.44680
H93         H  0.11984650  0.36752793  0.37261804     0.09110
C94         C  0.19107155  0.40709954  0.17044134     0.44810
C95         C  0.14497131  0.15592013  0.36028639    -0.04200
Co96       Co  0.16132592  0.29513563  0.27655815     0.73820
N97         N  0.24326367  0.40468138  0.35742516    -0.44390
C98         C  0.31517558  0.09411949  0.16537447     0.45080
N99         N  0.10109758  0.24438415  0.19775944    -0.44380
Co100      Co  0.28810691  0.34458384  0.27661373     0.73950
C101        C  0.36164153  0.34995815  0.19729910    -0.04710
C102        C  0.34726251  0.12182569  0.35879130    -0.04270
N103        N  0.16275951  0.18280589  0.22756691    -0.23800
N104        N  0.39814882  0.24460321  0.35654950    -0.44560
H105        H  0.39144622  0.13779989  0.18175739     0.09090
C106        C  0.15507936  0.37255558  0.19400651    -0.04690
Cl107      Cl  0.25341426  0.24889223  0.27514520    -0.47690
C108        C  0.19913277  0.40975712  0.38239557     0.44840
H109        H  0.15074404  0.10639236  0.18912520     0.09050
N110        N  0.23801806  0.40478234  0.19267716    -0.44400
O111        O  0.09212303  0.41864681  0.95612633    -0.77900
O112        O  0.02259983  0.12798294  0.04407320    -0.77930
O113        O  0.99322978  0.06987564  0.90282006    -0.77930
O114        O  0.07500485  0.50376565  0.07342030    -0.77880
O115        O  0.02242080  0.12706729  0.95386313    -0.78000
O116        O  0.09270446  0.42001523  0.04348186    -0.77920
O117        O  0.99354046  0.07168824  0.09555075    -0.77900
O118        O  0.07419478  0.50158941  0.92507308    -0.77940
C119        C  0.10544345  0.45727683  0.93041292     1.11790
C120        C  0.01635782  0.11635861  0.08429519     1.11670
C121        C  0.01597144  0.11487078  0.91373727     1.11810
C122        C  0.10622869  0.45933662  0.06857689     1.11690
O123        O  0.48003300  0.40058997  0.04865665    -0.77900
O124        O  0.41444452  0.09409167  0.95397005    -0.77980
O125        O  0.49029347  0.44849659  0.88990559    -0.77920
O126        O  0.42029933  0.00005855  0.05031784    -0.77900
O127        O  0.41461066  0.09464755  0.04447890    -0.77950
O128        O  0.47923173  0.39954443  0.95221310    -0.77910
O129        O  0.49186329  0.45132367  0.11003592    -0.77870
O130        O  0.41965155  0.99942321  0.94925733    -0.77940
Co131      Co  0.03231460  0.42335596  0.00001713     1.51530
Co132      Co  0.97165081  0.10470512  0.99911715     1.51690
Co133      Co  0.99840437  0.49695546  0.93980562     1.51570
Co134      Co  0.99911893  0.99826313  0.05931004     1.51470
O135        O  0.01168059  0.02098144  0.99938381    -1.39840
C136        C  0.47927361  0.40518982  0.09125544     1.11710
C137        C  0.39466253  0.04816688  0.94158923     1.11800
C138        C  0.47800090  0.40284892  0.90954694     1.11740
C139        C  0.39520013  0.04886886  0.05760956     1.11720
C140        C  0.15205351  0.44941682  0.09684879    -0.11040
C141        C  0.17863829  0.43399619  0.12858654    -0.12600
C142        C  0.06287157  0.17715043  0.14417899    -0.11040
C143        C  0.03792251  0.15237301  0.11716671    -0.12600
C144        C  0.35207336  0.05449200  0.08932860    -0.11040
C145        C  0.32747646  0.06835600  0.12267313    -0.12600
C146        C  0.43583333  0.32974547  0.14189800    -0.11040
C147        C  0.45819311  0.36060691  0.11726379    -0.12600
C148        C  0.17965419  0.43212080  0.87153382    -0.11040
C149        C  0.15149210  0.44692854  0.90249550    -0.12600
C150        C  0.06039494  0.17796906  0.85402343    -0.11040
C151        C  0.03667137  0.15127962  0.88068995    -0.12600
C152        C  0.35077173  0.05327057  0.91053934    -0.11040
C153        C  0.32459158  0.06604335  0.87777406    -0.12600
C154        C  0.45722491  0.35700839  0.88443950    -0.11040
C155        C  0.43621198  0.32412068  0.86036365    -0.12600
C156        C  0.19885878  0.43972337  0.42364923    -0.11040
C157        C  0.21753388  0.46781638  0.45235999    -0.12600
C158        C  0.30677503  0.06058397  0.42181870    -0.11040
C159        C  0.28780432  0.03489179  0.45172667    -0.12600
C160        C  0.21921662  0.46665329  0.54715032    -0.11040
C161        C  0.20242130  0.43877417  0.57679616    -0.12600
C162        C  0.30757049  0.05785654  0.57831082    -0.11040
C163        C  0.28971937  0.03313131  0.54733430    -0.12600
C164        C  0.46075927  0.27454092  0.45165270    -0.11040
C165        C  0.42927772  0.29033323  0.42283853    -0.12600
C166        C  0.04719440  0.21589434  0.45109809    -0.11040
C167        C  0.07886285  0.20102005  0.42222759    -0.12600
C168        C  0.43064649  0.28628518  0.57822463    -0.11040
C169        C  0.46128331  0.27281644  0.54834434    -0.12600
C170        C  0.07929325  0.20129181  0.57676577    -0.11040
C171        C  0.04767462  0.21477795  0.54754623    -0.12600
C172        C  0.50422490  0.74406752  0.52196518     0.02800
C173        C  0.00403524  0.74478786  0.47722102     0.02800
C174        C  0.25284041  0.50159943  0.47744612     0.02800
C175        C  0.25374110  0.00079388  0.52170770     0.02800
C176        C  0.20689728  0.90963790  0.61836274     0.44690
N177        N  0.19544434  0.85635868  0.67447064     0.03580
C178        C  0.40305076  0.74279300  0.80815855    -0.04290
H179        H  0.41887156  0.68651991  0.63707388     0.09070
C180        C  0.25424773  0.58864754  0.64565881    -0.04650
Co181      Co  0.29794136  0.83710154  0.72418786     0.74180
N182        N  0.36767712  0.74433061  0.67788834    -0.23820
Co183      Co  0.34219592  0.69096558  0.72669393     0.74070
C184        C  0.30396157  0.58230690  0.62169452     0.44790
N185        N  0.15826050  0.69095745  0.67454539     0.03200
N186        N  0.31430830  0.63535334  0.67836289     0.03300
N187        N  0.36990712  0.83707691  0.80279798    -0.44670
H188        H  0.29452328  0.91909862  0.63556789     0.09060
N189        N  0.35137897  0.80030525  0.67553625     0.03590
N190        N  0.31364947  0.63908991  0.77572550     0.03330
C191        C  0.30868403  0.58963838  0.83511960     0.44930
N192        N  0.14248609  0.74716704  0.67506065    -0.23280
C193        C  0.24914835  0.90248024  0.80886480    -0.04200
N194        N  0.17018930  0.87996201  0.63929015    -0.44390
N195        N  0.34169657  0.61880981  0.81024236    -0.44610
C196        C  0.19649741  0.90711966  0.82992642     0.44710
N197        N  0.34962999  0.80459786  0.77236100     0.03580
N198        N  0.13783645  0.74656526  0.77091984    -0.23300
N199        N  0.24577882  0.86864717  0.67636467    -0.23790
N200        N  0.15599661  0.69105201  0.77140169     0.03220
H201        H  0.07567624  0.79540708  0.80884083     0.09110
H202        H  0.21941576  0.57725537  0.82321618     0.09140
N203        N  0.36792932  0.74921244  0.77429068    -0.23840
N204        N  0.26407387  0.62257575  0.67966828    -0.23460
N205        N  0.19288936  0.85605051  0.77145066     0.03580
C206        C  0.40156586  0.78264310  0.61897618     0.44980
C207        C  0.11135138  0.76073002  0.64024243    -0.04710
N208        N  0.26345421  0.62556771  0.77622616    -0.23450
H209        H  0.21610823  0.57266248  0.63766494     0.09130
N210        N  0.37091169  0.82540102  0.64015055    -0.44680
H211        H  0.09271831  0.80353301  0.63221821     0.09110
C212        C  0.09666675  0.69736498  0.82182691     0.44810
C213        C  0.25639345  0.90251935  0.64260997    -0.04200
Co214      Co  0.16599582  0.80248957  0.72305638     0.73820
N215        N  0.13899846  0.66437924  0.63962108    -0.44390
C216        C  0.40333613  0.80149035  0.82692315     0.45080
N217        N  0.16396836  0.87725298  0.80511457    -0.44380
Co218      Co  0.20999839  0.65611044  0.72554945     0.73890
C219        C  0.25641650  0.59400801  0.81297755    -0.04710
C220        C  0.39988666  0.72954567  0.64390776    -0.04270
N221        N  0.24299157  0.86972595  0.77262617    -0.23800
N222        N  0.33992918  0.61270817  0.64301784    -0.44560
H223        H  0.42593189  0.70278908  0.81773895     0.09090
C224        C  0.09956004  0.75496526  0.80210567    -0.04690
Cl225      Cl  0.25401584  0.74663868  0.72500127    -0.47690
C226        C  0.10956314  0.70657288  0.61676719     0.44840
H227        H  0.28583842  0.91959067  0.81953889     0.09050
N228        N  0.13231614  0.66020846  0.80100799    -0.44400
C229        C  0.10989175  0.70161458  0.38223398     0.44690
N230        N  0.14263333  0.73676283  0.32412355     0.03580
C231        C  0.35110351  0.62818663  0.18972281    -0.04290
H232        H  0.38668944  0.63037748  0.37032673     0.09070
C233        C  0.36270710  0.83799628  0.36231412    -0.04650
Co234      Co  0.21869142  0.65317849  0.27376077     0.74180
N235        N  0.32265739  0.64397865  0.32209111    -0.23820
Co236      Co  0.34561007  0.70286921  0.27422149     0.74070
C237        C  0.39853624  0.79160530  0.38255238     0.44790
N238        N  0.23319506  0.87044742  0.32426595     0.03200
N239        N  0.36534728  0.75913701  0.32345318     0.03300
N240        N  0.26822308  0.59605727  0.18773760    -0.44670
H241        H  0.15510687  0.61123869  0.37013789     0.09060
N242        N  0.27449374  0.62518801  0.32034519     0.03590
N243        N  0.36593870  0.76414576  0.22694932     0.03330
C244        C  0.40023611  0.81071898  0.17470654     0.44930
N245        N  0.18484196  0.85215400  0.32557075    -0.23280
C246        C  0.14119087  0.65217406  0.19594809    -0.04200
N247        N  0.11041079  0.74989609  0.35777212    -0.44390
N248        N  0.40218483  0.75809483  0.19481112    -0.44610
C249        C  0.10098998  0.69288989  0.17629659     0.44710
N250        N  0.27480192  0.62840286  0.22348321     0.03580
N251        N  0.18340799  0.85206902  0.22877013    -0.23300
N252        N  0.16384765  0.68220289  0.32432230    -0.23790
N253        N  0.23140432  0.87158341  0.22778360     0.03220
H254        H  0.11478886  0.86302024  0.18566820     0.09110
H255        H  0.35086592  0.89591955  0.19193982     0.09140
N256        N  0.32285476  0.64782185  0.22488837    -0.23840
N257        N  0.34372114  0.81343759  0.32561591    -0.23460
N258        N  0.13958388  0.73643671  0.22798207     0.03580
C259        C  0.30808512  0.58676997  0.37913402     0.44980
C260        C  0.15974403  0.87498107  0.36184953    -0.04710
N261        N  0.34251042  0.81760796  0.22894428    -0.23450
H262        H  0.35222674  0.88201804  0.37365478     0.09130
N263        N  0.26426671  0.59133264  0.35368911    -0.44680
H264        H  0.11978210  0.86756580  0.37259871     0.09110
C265        C  0.19105621  0.90714721  0.17044867     0.44810
C266        C  0.14502305  0.65594430  0.36030662    -0.04200
Co267      Co  0.16133023  0.79516206  0.27654948     0.73820
N268        N  0.24320409  0.90472912  0.35744231    -0.44390
C269        C  0.31518953  0.59408243  0.16537960     0.45080
N270        N  0.10115645  0.74435784  0.19774734    -0.44380
Co271      Co  0.28806100  0.84462424  0.27663500     0.73950
C272        C  0.36159264  0.84998473  0.19732008    -0.04710
C273        C  0.34732271  0.62178390  0.35878063    -0.04270
N274        N  0.16281700  0.68279873  0.22757936    -0.23800
N275        N  0.39812538  0.74459304  0.35654275    -0.44560
H276        H  0.39145353  0.63778922  0.18174154     0.09090
C277        C  0.15506841  0.87258123  0.19399858    -0.04690
Cl278      Cl  0.25341811  0.74893292  0.27520114    -0.47690
C279        C  0.19906116  0.90980428  0.38239899     0.44840
H280        H  0.15081349  0.60636786  0.18915353     0.09050
N281        N  0.23799317  0.90484605  0.19269783    -0.44400
O282        O  0.09212445  0.91867139  0.95613419    -0.77900
O283        O  0.02263307  0.62795020  0.04407748    -0.77930
O284        O  0.99323242  0.56986316  0.90282315    -0.77930
O285        O  0.07498660  0.00380932  0.07342792    -0.77880
O286        O  0.02243803  0.62704394  0.95386677    -0.78000
O287        O  0.09270305  0.92006028  0.04349014    -0.77920
O288        O  0.99357434  0.57165528  0.09555539    -0.77900
O289        O  0.07419351  0.00161024  0.92507661    -0.77940
C290        C  0.10544326  0.95729878  0.93041778     1.11790
C291        C  0.01640073  0.61632002  0.08429989     1.11670
C292        C  0.01597985  0.61485403  0.91374084     1.11810
C293        C  0.10621832  0.95938603  0.06858557     1.11690
O294        O  0.48000655  0.90061577  0.04866127    -0.77900
O295        O  0.41444370  0.59407183  0.95397684    -0.77980
O296        O  0.49029022  0.94850817  0.88990857    -0.77920
O297        O  0.42031532  0.50002156  0.05032493    -0.77900
O298        O  0.41461351  0.59461163  0.04448642    -0.77950
O299        O  0.47921870  0.89956200  0.95221700    -0.77910
O300        O  0.49182953  0.95135605  0.11003903    -0.77870
O301        O  0.41965548  0.49940394  0.94925755    -0.77940
Co302      Co  0.03231480  0.92338237  0.00002406     1.51530
Co303      Co  0.97167192  0.60468542  0.99912516     1.51690
Co304      Co  0.99840262  0.99697107  0.93980674     1.51570
Co305      Co  0.99913318  0.49823432  0.05930925     1.51470
O306        O  0.01169034  0.52095674  0.99938379    -1.39840
C307        C  0.47923419  0.90522335  0.09125988     1.11710
C308        C  0.39466443  0.54814736  0.94159200     1.11800
C309        C  0.47799298  0.90286324  0.90955072     1.11740
C310        C  0.39520999  0.54882865  0.05761710     1.11720
C311        C  0.15204277  0.94947589  0.09685910    -0.11040
C312        C  0.17862679  0.93405484  0.12859718    -0.12600
C313        C  0.06294240  0.67709710  0.14418024    -0.11040
C314        C  0.03798565  0.65232164  0.11717109    -0.12600
C315        C  0.35208269  0.55444485  0.08933610    -0.11040
C316        C  0.32748578  0.56830964  0.12268055    -0.12600
C317        C  0.43576998  0.82979062  0.14190149    -0.11040
C318        C  0.45813592  0.86064983  0.11726855    -0.12600
C319        C  0.17964985  0.93213285  0.87153621    -0.11040
C320        C  0.15148983  0.94694683  0.90249798    -0.12600
C321        C  0.06039893  0.67795601  0.85402750    -0.11040
C322        C  0.03667682  0.65126491  0.88069376    -0.12600
C323        C  0.35077538  0.55325336  0.91054012    -0.11040
C324        C  0.32459631  0.56603200  0.87777516    -0.12600
C325        C  0.45721751  0.85702258  0.88444364    -0.11040
C326        C  0.43620533  0.82413433  0.86036803    -0.12600
C327        C  0.19876921  0.93977063  0.42365337    -0.11040
C328        C  0.21744147  0.96786408  0.45236543    -0.12600
C329        C  0.30685934  0.56054096  0.42181995    -0.11040
C330        C  0.28789413  0.53484678  0.45172953    -0.12600
C331        C  0.21917334  0.96666622  0.54715671    -0.11040
C332        C  0.20239319  0.93877929  0.57680463    -0.12600
C333        C  0.30759743  0.55785281  0.57831924    -0.11040
C334        C  0.28976201  0.53311914  0.54734014    -0.12600
C335        C  0.46074257  0.77450727  0.45165311    -0.11040
C336        C  0.42925553  0.79029978  0.42284208    -0.12600
C337        C  0.04721429  0.71592441  0.45109893    -0.11040
C338        C  0.07888855  0.70104990  0.42223159    -0.12600
C339        C  0.43064186  0.78628060  0.57822625    -0.11040
C340        C  0.46127701  0.77280628  0.54834564    -0.12600
C341        C  0.07929624  0.70129752  0.57676826    -0.11040
C342        C  0.04767993  0.71478814  0.54754776    -0.12600
C343        C  0.00422602  0.24404738  0.52196438     0.02800
C344        C  0.50403865  0.24482486  0.47721941     0.02800
C345        C  0.75278868  0.00161927  0.47744617     0.02800
C346        C  0.75377387  0.50078745  0.52170705     0.02800
C347        C  0.70690556  0.40964181  0.61835267     0.44690
N348        N  0.69545007  0.35635956  0.67445781     0.03580
C349        C  0.90305069  0.24278111  0.80814552    -0.04290
H350        H  0.91886920  0.18651089  0.63706144     0.09070
C351        C  0.75424109  0.08864284  0.64564799    -0.04650
Co352      Co  0.79794556  0.33709571  0.72417574     0.74180
N353        N  0.86767636  0.24432220  0.67787654    -0.23820
Co354      Co  0.84219312  0.19095793  0.72668116     0.74070
C355        C  0.80395531  0.08229778  0.62168459     0.44790
N356        N  0.65825922  0.19096069  0.67453250     0.03200
N357        N  0.81430342  0.13534768  0.67835033     0.03300
N358        N  0.86991093  0.33706641  0.80278503    -0.44670
H359        H  0.79453231  0.41909689  0.63555856     0.09060
N360        N  0.85138093  0.30029760  0.67552559     0.03590
N361        N  0.81364362  0.13908390  0.77571200     0.03330
C362        C  0.80867398  0.08963370  0.83510588     0.44930
N363        N  0.64248769  0.24717097  0.67504700    -0.23280
C364        C  0.74915670  0.40247639  0.80885128    -0.04200
N365        N  0.67019588  0.37996660  0.63927832    -0.44390
N366        N  0.84168912  0.11880230  0.81022911    -0.44610
C367        C  0.69650579  0.40711995  0.82991217     0.44710
N368        N  0.84963203  0.30458854  0.77234842     0.03580
N369        N  0.63783610  0.24657030  0.77090541    -0.23300
N370        N  0.74578529  0.36864506  0.67635262    -0.23790
N371        N  0.65599356  0.19105628  0.77138732     0.03220
H372        H  0.57567797  0.29541584  0.80882610     0.09110
H373        H  0.71940449  0.07725791  0.82320241     0.09140
N374        N  0.86792904  0.24920245  0.77427795    -0.23840
N375        N  0.76406826  0.12257283  0.67965590    -0.23460
N376        N  0.69289435  0.35605146  0.77143684     0.03580
C377        C  0.90156760  0.28263575  0.61896689     0.44980
C378        C  0.61135417  0.26073496  0.64022850    -0.04710
N379        N  0.76344724  0.12556560  0.77621254    -0.23450
H380        H  0.71610091  0.07265891  0.63765474     0.09130
N381        N  0.87091554  0.32539430  0.64014148    -0.44680
H382        H  0.59272287  0.30353853  0.63220368     0.09110
C383        C  0.59666342  0.19737286  0.82181172     0.44810
C384        C  0.75640168  0.40251875  0.64259950    -0.04200
Co385      Co  0.66599865  0.30249231  0.72304261     0.73820
N386        N  0.63899592  0.16438252  0.63960896    -0.44390
C387        C  0.90333872  0.30147829  0.82690976     0.45080
N388        N  0.66397439  0.37725588  0.80510058    -0.44380
Co389      Co  0.70999400  0.15611127  0.72553613     0.73890
C390        C  0.75640677  0.09400715  0.81296384    -0.04710
C391        C  0.89988570  0.22953705  0.64389617    -0.04270
N392        N  0.74299765  0.36972298  0.77261285    -0.23800
N393        N  0.83992408  0.11269895  0.64300641    -0.44560
H394        H  0.92593037  0.20277622  0.81772573     0.09090
C395        C  0.59955973  0.25497272  0.80209092    -0.04690
Cl396      Cl  0.75401581  0.24663618  0.72498822    -0.47690
C397        C  0.60956357  0.20657735  0.61675458     0.44840
H398        H  0.78584813  0.41958362  0.81952561     0.09050
N399        N  0.63231126  0.16021431  0.80099333    -0.44400
C400        C  0.60988550  0.20164584  0.38222681     0.44690
N401        N  0.64263142  0.23678823  0.32411625     0.03580
C402        C  0.85108483  0.12816866  0.18971655    -0.04290
H403        H  0.88666742  0.13035244  0.37032277     0.09070
C404        C  0.86272226  0.33797392  0.36230672    -0.04650
Co405      Co  0.71867456  0.15318887  0.27375294     0.74180
N406        N  0.82263904  0.14396562  0.32208509    -0.23820
Co407      Co  0.84560418  0.20284925  0.27421622     0.74070
C408        C  0.89854115  0.29157691  0.38254762     0.44790
N409        N  0.73321845  0.37045221  0.32425684     0.03200
N410        N  0.86535032  0.25911337  0.32344782     0.03300
N411        N  0.76819517  0.09606299  0.18772797    -0.44670
H412        H  0.65508392  0.11126229  0.37012871     0.09060
N413        N  0.77447153  0.12518508  0.32033752     0.03590
N414        N  0.86594487  0.26411815  0.22694387     0.03330
C415        C  0.90024687  0.31067857  0.17469735     0.44930
N416        N  0.68486166  0.35216854  0.32556260    -0.23280
C417        C  0.64117660  0.15220474  0.19593839    -0.04200
N418        N  0.61041212  0.24992743  0.35776587    -0.44390
N419        N  0.90218757  0.25805635  0.19480368    -0.44610
C420        C  0.60098468  0.19292987  0.17628610     0.44710
N421        N  0.77478142  0.12840173  0.22347590     0.03580
N422        N  0.68342796  0.35208327  0.22876242    -0.23300
N423        N  0.66383585  0.18222455  0.32431396    -0.23790
N424        N  0.73142948  0.37158479  0.22777454     0.03220
H425        H  0.61481120  0.36304469  0.18565864     0.09110
H426        H  0.85089302  0.39588985  0.19192855     0.09140
N427        N  0.82283945  0.14780771  0.22488275    -0.23840
N428        N  0.84373408  0.31341798  0.32560851    -0.23460
N429        N  0.63958245  0.23646447  0.22797491     0.03580
C430        C  0.80805420  0.08676115  0.37912708     0.44980
C431        C  0.65976801  0.37499958  0.36184176    -0.04710
N432        N  0.84252628  0.31758465  0.22893761    -0.23450
H433        H  0.85224898  0.38199763  0.37364601     0.09130
N434        N  0.76423692  0.09133254  0.35368103    -0.44680
H435        H  0.61980473  0.36759163  0.37259186     0.09110
C436        C  0.69108925  0.40715042  0.17043680     0.44810
C437        C  0.64500758  0.15596945  0.36029812    -0.04200
Co438      Co  0.66133914  0.29518291  0.27654220     0.73820
N439        N  0.74323421  0.40473102  0.35743314    -0.44390
C440        C  0.81516264  0.09407731  0.16537083     0.45080
N441        N  0.60115849  0.24439580  0.19773822    -0.44380
Co442      Co  0.78808087  0.34461511  0.27662684     0.73950
C443        C  0.86161259  0.34995421  0.19731118    -0.04710
C444        C  0.84729924  0.12176662  0.35877529    -0.04270
N445        N  0.66280613  0.18282249  0.22757171    -0.23800
N446        N  0.89812372  0.24456392  0.35653936    -0.44560
H447        H  0.89143713  0.13776308  0.18173532     0.09090
C448        C  0.65509271  0.37259811  0.19398947    -0.04690
Cl449      Cl  0.75341963  0.24893346  0.27519420    -0.47690
C450        C  0.69909184  0.40981451  0.38239028     0.44840
H451        H  0.65079203  0.10639784  0.18914227     0.09050
N452        N  0.73802670  0.40483930  0.19268575    -0.44400
O453        O  0.59214326  0.41865640  0.95612270    -0.77900
O454        O  0.52264082  0.12798229  0.04406576    -0.77930
O455        O  0.49324023  0.06987242  0.90281829    -0.77930
O456        O  0.57502941  0.50379062  0.07341264    -0.77880
O457        O  0.52244657  0.12706070  0.95385626    -0.78000
O458        O  0.59273661  0.42003886  0.04347785    -0.77920
O459        O  0.49358101  0.07169598  0.09554895    -0.77900
O460        O  0.57420572  0.50159651  0.92506863    -0.77940
C461        C  0.60545786  0.45728647  0.93040719     1.11790
C462        C  0.51640550  0.11636005  0.08428906     1.11670
C463        C  0.51598621  0.11486588  0.91373170     1.11810
C464        C  0.60625868  0.45936605  0.06856878     1.11690
O465        O  0.97999622  0.40058438  0.04864961    -0.77900
O466        O  0.91442439  0.09408420  0.95396405    -0.77980
O467        O  0.99028186  0.44849993  0.88990252    -0.77920
O468        O  0.92027925  0.00003892  0.05030991    -0.77900
O469        O  0.91457570  0.09462874  0.04447282    -0.77950
O470        O  0.97920896  0.39954639  0.95220707    -0.77910
O471        O  0.99182363  0.45131204  0.11003251    -0.77870
O472        O  0.91963977  0.99941607  0.94925145    -0.77940
Co473      Co  0.53234095  0.42336466  0.00001816     1.51530
Co474      Co  0.47168046  0.10470966  0.99911649     1.51690
Co475      Co  0.49841709  0.49695687  0.93980574     1.51570
Co476      Co  0.49914128  0.99826867  0.05931062     1.51470
O477        O  0.51169966  0.02098136  0.99938299    -1.39840
C478        C  0.97922972  0.40518202  0.09124862     1.11710
C479        C  0.89464769  0.04815745  0.94158167     1.11800
C480        C  0.97798627  0.40285172  0.90954118     1.11740
C481        C  0.89517170  0.04884487  0.05760102     1.11720
C482        C  0.65208689  0.44945706  0.09683816    -0.11040
C483        C  0.67866941  0.43404399  0.12857884    -0.12600
C484        C  0.56293797  0.17714685  0.14416670    -0.11040
C485        C  0.53798428  0.15237004  0.11715686    -0.12600
C486        C  0.85204394  0.05445813  0.08931942    -0.11040
C487        C  0.82745037  0.06831602  0.12266673    -0.12600
C488        C  0.93577840  0.32973939  0.14188730    -0.11040
C489        C  0.95813955  0.36060056  0.11725324    -0.12600
C490        C  0.67966176  0.43212963  0.87152327    -0.11040
C491        C  0.65150314  0.44693982  0.90248627    -0.12600
C492        C  0.56039681  0.17796645  0.85401365    -0.11040
C493        C  0.53667786  0.15127531  0.88068161    -0.12600
C494        C  0.85075999  0.05325743  0.91052915    -0.11040
C495        C  0.82458241  0.06603149  0.87776296    -0.12600
C496        C  0.95721624  0.35701096  0.88443110    -0.11040
C497        C  0.93620736  0.32412097  0.86035503    -0.12600
C498        C  0.69880778  0.43977324  0.42364707    -0.11040
C499        C  0.71748631  0.46785708  0.45236142    -0.12600
C500        C  0.80681984  0.06053930  0.42181464    -0.11040
C501        C  0.78784739  0.03485511  0.45172573    -0.12600
C502        C  0.71919266  0.46667050  0.54715110    -0.11040
C503        C  0.70240375  0.43878564  0.57679600    -0.12600
C504        C  0.80758886  0.05784319  0.57830991    -0.11040
C505        C  0.78974351  0.03311340  0.54733356    -0.12600
C506        C  0.96073974  0.27447445  0.45165190    -0.11040
C507        C  0.92925656  0.29026820  0.42283886    -0.12600
C508        C  0.54721452  0.21596111  0.45109491    -0.11040
C509        C  0.57888502  0.20108536  0.42222556    -0.12600
C510        C  0.93064583  0.28627468  0.57821967    -0.11040
C511        C  0.96128215  0.27279577  0.54834181    -0.12600
C512        C  0.57929375  0.20130198  0.57675831    -0.11040
C513        C  0.54767574  0.21479855  0.54754106    -0.12600
C514        C  0.00423249  0.74405977  0.52196544     0.02800
C515        C  0.50402750  0.74480023  0.47722077     0.02800
C516        C  0.75280540  0.50162539  0.47744686     0.02800
C517        C  0.75376536  0.00077801  0.52170617     0.02800
C518        C  0.70690032  0.90964051  0.61835901     0.44690
N519        N  0.69544641  0.85636025  0.67446569     0.03580
C520        C  0.90305147  0.74279084  0.80815314    -0.04290
H521        H  0.91887089  0.68651532  0.63706935     0.09070
C522        C  0.75424352  0.58864716  0.64565562    -0.04650
Co523      Co  0.79794356  0.83710038  0.72418222     0.74180
N524        N  0.86767692  0.74432755  0.67788302    -0.23820
Co525      Co  0.84219420  0.69096412  0.72668906     0.74070
C526        C  0.80395751  0.58230410  0.62169179     0.44790
N527        N  0.65825813  0.69096098  0.67454011     0.03200
N528        N  0.81430508  0.63535250  0.67835864     0.03300
N529        N  0.86991039  0.83707543  0.80279125    -0.44670
H530        H  0.79452692  0.91909810  0.63556378     0.09060
N531        N  0.85138023  0.80030254  0.67553067     0.03590
N532        N  0.81364559  0.63909054  0.77572087     0.03330
C533        C  0.80867704  0.58964282  0.83511632     0.44930
N534        N  0.64248509  0.74717090  0.67505532    -0.23280
C535        C  0.74915352  0.90247788  0.80885992    -0.04200
N536        N  0.67019166  0.87996486  0.63928558    -0.44390
N537        N  0.84169125  0.61881162  0.81023877    -0.44610
C538        C  0.69650314  0.90711793  0.82992218     0.44710
N539        N  0.84963200  0.80459627  0.77235502     0.03580
N540        N  0.63783517  0.74656942  0.77091454    -0.23300
N541        N  0.74578132  0.86864716  0.67635971    -0.23790
N542        N  0.65599396  0.69105582  0.77139609     0.03220
H543        H  0.57567613  0.79541249  0.80883602     0.09110
H544        H  0.71940847  0.57726252  0.82321239     0.09140
N545        N  0.86792978  0.74921048  0.77428537    -0.23840
N546        N  0.76407024  0.62257640  0.67966413    -0.23460
N547        N  0.69289212  0.85605208  0.77144521     0.03580
C548        C  0.90156779  0.78263875  0.61897134     0.44980
C549        C  0.61135017  0.76073458  0.64023736    -0.04710
N550        N  0.76344980  0.62557006  0.77622134    -0.23450
H551        H  0.71610355  0.57266299  0.63766202     0.09130
N552        N  0.87091453  0.82539769  0.64014538    -0.44680
H553        H  0.59271778  0.80353792  0.63221327     0.09110
C554        C  0.59666430  0.69736974  0.82182132     0.44810
C555        C  0.75639662  0.90251980  0.64260569    -0.04200
Co556      Co  0.66599643  0.80249251  0.72305111     0.73820
N557        N  0.63899461  0.66438308  0.63961628    -0.44390
C558        C  0.90333879  0.80148867  0.82691671     0.45080
N559        N  0.66397248  0.87725367  0.80511007    -0.44380
Co560      Co  0.70999516  0.65611305  0.72554437     0.73890
C561        C  0.75641018  0.59401276  0.81297350    -0.04710
C562        C  0.89988665  0.72954150  0.64390281    -0.04270
N563        N  0.74299490  0.86972570  0.77262057    -0.23800
N564        N  0.83992566  0.61270564  0.64301407    -0.44560
H565        H  0.92593163  0.70278654  0.81773402     0.09090
C566        C  0.59955893  0.75497015  0.80210050    -0.04690
Cl567      Cl  0.75401532  0.74663941  0.72499596    -0.47690
C568        C  0.60956011  0.70657742  0.61676246     0.44840
H569        H  0.78584454  0.91958587  0.81953436     0.09050
N570        N  0.63231286  0.66021267  0.80100219    -0.44400
C571        C  0.60988647  0.70162820  0.38223283     0.44690
N572        N  0.64263215  0.73677326  0.32412272     0.03580
C573        C  0.85109340  0.62817973  0.18972049    -0.04290
H574        H  0.88668028  0.63036645  0.37032550     0.09070
C575        C  0.86271664  0.83798436  0.36231274    -0.04650
Co576      Co  0.71868354  0.65318218  0.27375944     0.74180
N577        N  0.82264963  0.64397202  0.32208917    -0.23820
Co578      Co  0.84560782  0.70285939  0.27422043     0.74070
C579        C  0.89854225  0.79159053  0.38255135     0.44790
N580        N  0.73320575  0.87044756  0.32426327     0.03200
N581        N  0.86534992  0.75912479  0.32345253     0.03300
N582        N  0.76820884  0.59606079  0.18773458    -0.44670
H583        H  0.65509398  0.61124837  0.37013632     0.09060
N584        N  0.77448428  0.62518582  0.32034285     0.03590
N585        N  0.86594233  0.76413277  0.22694858     0.03330
C586        C  0.90024237  0.81070167  0.17470523     0.44930
N587        N  0.68485098  0.85215860  0.32556814    -0.23280
C588        C  0.64118318  0.65218619  0.19594679    -0.04200
N589        N  0.61040999  0.74990944  0.35777112    -0.44390
N590        N  0.90218718  0.75807770  0.19480960    -0.44610
C591        C  0.60098654  0.69290642  0.17629497     0.44710
N592        N  0.77479184  0.62840230  0.22348159     0.03580
N593        N  0.68341787  0.85207294  0.22876831    -0.23300
N594        N  0.66384190  0.68221157  0.32432137    -0.23790
N595        N  0.73141655  0.87158162  0.22778138     0.03220
H596        H  0.61480065  0.86302723  0.18566457     0.09110
H597        H  0.85087942  0.89590657  0.19193848     0.09140
N598        N  0.82284703  0.64781558  0.22488704    -0.23840
N599        N  0.84372820  0.81342714  0.32561490    -0.23460
N600        N  0.63958277  0.73644775  0.22798134     0.03580
C601        C  0.80807256  0.58676546  0.37913153     0.44980
C602        C  0.65975425  0.87498750  0.36184657    -0.04710
N603        N  0.84251855  0.81759685  0.22894364    -0.23450
H604        H  0.85224024  0.88200715  0.37365282     0.09130
N605        N  0.76425427  0.59133186  0.35368664    -0.44680
H606        H  0.61979161  0.86757541  0.37259580     0.09110
C607        C  0.69107307  0.90714415  0.17044416     0.44810
C608        C  0.64501436  0.65595486  0.36030539    -0.04200
Co609      Co  0.66133441  0.79516978  0.27654810     0.73820
N610        N  0.74321717  0.90472827  0.35743943    -0.44390
C611        C  0.81517513  0.59408203  0.16537626     0.45080
N612        N  0.60115683  0.74437366  0.19774585    -0.44380
Co613      Co  0.78807065  0.84461850  0.27663346     0.73950
C614        C  0.86160292  0.84997125  0.19731919    -0.04710
C615        C  0.84731302  0.62177580  0.35877884    -0.04270
N616        N  0.66281127  0.68280789  0.22757862    -0.23800
N617        N  0.89812734  0.74457824  0.35654211    -0.44560
H618        H  0.89144419  0.63777901  0.18173872     0.09090
C619        C  0.65508087  0.87258519  0.19399550    -0.04690
Cl620      Cl  0.75341907  0.74893187  0.27519999    -0.47690
C621        C  0.69907380  0.90980731  0.38239543     0.44840
H622        H  0.65080242  0.60637963  0.18915156     0.09050
N623        N  0.73800978  0.90483947  0.19269376    -0.44400
O624        O  0.59213236  0.91866497  0.95613304    -0.77900
O625        O  0.52263977  0.62796185  0.04407320    -0.77930
O626        O  0.49323950  0.56986340  0.90282155    -0.77930
O627        O  0.57501229  0.00380357  0.07342173    -0.77880
O628        O  0.52244133  0.62705052  0.95386302    -0.78000
O629        O  0.59271548  0.92005030  0.04348836    -0.77920
O630        O  0.49359009  0.57166573  0.09555383    -0.77900
O631        O  0.57420369  0.00160292  0.92507290    -0.77940
C632        C  0.60545216  0.95729081  0.93041550     1.11790
C633        C  0.51640881  0.61633424  0.08429610     1.11670
C634        C  0.51598350  0.61485741  0.91373762     1.11810
C635        C  0.60623842  0.95937608  0.06857999     1.11690
O636        O  0.97999838  0.90060645  0.04865756    -0.77900
O637        O  0.91443589  0.59407538  0.95397691    -0.77980
O638        O  0.99028677  0.94850878  0.88990656    -0.77920
O639        O  0.92029096  0.50002539  0.05031708    -0.77900
O640        O  0.91460231  0.59461534  0.04448632    -0.77950
O641        O  0.97921381  0.89955986  0.95221369    -0.77910
O642        O  0.99180875  0.95134739  0.11003685    -0.77870
O643        O  0.91964211  0.49940770  0.94925417    -0.77940
Co644      Co  0.53232444  0.92338092  0.00002487     1.51530
Co645      Co  0.47167966  0.60468839  0.99912328     1.51690
Co646      Co  0.49841362  0.99697050  0.93980736     1.51570
Co647      Co  0.49915813  0.49824401  0.05930961     1.51470
O648        O  0.51170537  0.52096369  0.99938183    -1.39840
C649        C  0.97922363  0.90521182  0.09125611     1.11710
C650        C  0.89465389  0.54815305  0.94159040     1.11800
C651        C  0.97799035  0.90286236  0.90954737     1.11740
C652        C  0.89519133  0.54883449  0.05761208     1.11720
C653        C  0.65206484  0.94946320  0.09685080    -0.11040
C654        C  0.67864839  0.93404498  0.12858966    -0.12600
C655        C  0.56294075  0.67711886  0.14417602    -0.11040
C656        C  0.53798754  0.65234218  0.11716559    -0.12600
C657        C  0.85206280  0.55445248  0.08932959    -0.11040
C658        C  0.82746693  0.56831477  0.12267488    -0.12600
C659        C  0.93577357  0.82976916  0.14189696    -0.11040
C660        C  0.95813410  0.86063143  0.11726293    -0.12600
C661        C  0.67965834  0.93212619  0.87153392    -0.11040
C662        C  0.65149897  0.94693747  0.90249650    -0.12600
C663        C  0.56039727  0.67796110  0.85402257    -0.11040
C664        C  0.53667702  0.65126889  0.88068934    -0.12600
C665        C  0.85076482  0.55326275  0.91053887    -0.11040
C666        C  0.82458680  0.56604018  0.87777329    -0.12600
C667        C  0.95721779  0.85702124  0.88443869    -0.11040
C668        C  0.93620716  0.82413255  0.86036232    -0.12600
C669        C  0.69878599  0.93976657  0.42365178    -0.11040
C670        C  0.71746567  0.96785177  0.45236450    -0.12600
C671        C  0.80684107  0.56054552  0.42181970    -0.11040
C672        C  0.78786743  0.53486121  0.45172999    -0.12600
C673        C  0.71918655  0.96666194  0.54715355    -0.11040
C674        C  0.70239854  0.93877981  0.57680046    -0.12600
C675        C  0.80759092  0.55785245  0.57831605    -0.11040
C676        C  0.78974790  0.53312395  0.54733796    -0.12600
C677        C  0.96075055  0.77449258  0.45165158    -0.11040
C678        C  0.92926341  0.79028387  0.42284024    -0.12600
C679        C  0.54720633  0.71593903  0.45109695    -0.11040
C680        C  0.57888086  0.70106536  0.42222948    -0.12600
C681        C  0.93064681  0.78627583  0.57822298    -0.11040
C682        C  0.96128386  0.77280035  0.54834397    -0.12600
C683        C  0.57929075  0.70130237  0.57676484    -0.11040
C684        C  0.54767296  0.71479404  0.54754566    -0.12600
loop_ 
_geom_bond_atom_site_label_1 
_geom_bond_atom_site_label_2 
_geom_bond_distance 
_geom_bond_site_symmetry_2 
_ccdc_geom_bond_type 
C1          C169   1.452       .  S
C1          C513   1.452       .  S
C1          C344   1.355       .  D
C2          C166   1.453       .  S
C2          C506   1.453   1_455  S
C2          C343   1.355       .  D
C3          C159   1.445       .  S
C3          C328   1.445   1_545  S
C3          C175   1.341       .  D
C4          C160   1.445       .  S
C4          C334   1.445       .  S
C4          C174   1.341       .  D
C5           N23   1.353       .  A
C5           C42   1.438       .  S
C5          C161   1.427       .  S
N6           N23   1.331       .  A
N6           N28   1.318       .  A
N6          Co43   2.103       .  S
C7           N32   1.351       .  A
C7           C45   1.468       .  S
C7           H52   1.081       .  S
H8           C49   1.081       .  S
C9           N33   1.329       .  A
C9           C13   1.438       .  S
C9           H38   1.082       .  S
Co10         N28   2.041       .  S
Co10         N18   2.117       .  S
Co10         N50   2.105       .  S
Co10         N26   2.048       .  S
Co10        Cl54   2.443       .  S
N11          C49   1.334       .  A
N11          N18   1.320       .  A
N11         Co12   2.062       .  S
Co12         N15   2.105       .  S
Co12         N32   2.109       .  S
Co12         N19   2.075       .  S
Co12        Cl54   2.455       .  S
C13          N51   1.353       .  A
C13         C162   1.429       .  S
N14          N21   1.321       .  A
N14          N44   1.333       .  A
N14         Co47   2.127       .  S
N15          N33   1.319       .  A
N15          N51   1.331       .  A
N16          C45   1.337       .  A
N16          N26   1.317       .  A
H17          C42   1.082       .  S
N18          N39   1.333       .  A
N19          N37   1.322       .  A
N19          N24   1.322       .  A
C20          N24   1.344       .  A
C20          C48   1.466       .  S
C20         C153   1.444       .  S
N21          C36   1.332       .  A
N21         Co43   2.053       .  S
C22          N50   1.348       .  A
C22          C25   1.461       .  S
C22          H56   1.081       .  S
C25          N46   1.342       .  A
C25         C148   1.434       .  S
N26          N32   1.319       .  A
N27          C53   1.348       .  A
N27          N29   1.320       .  A
N27         Co43   2.105       .  S
N28          C42   1.329       .  A
N29          N57   1.319       .  A
N29         Co47   2.053       .  S
H30          C53   1.081       .  S
H31          C48   1.081       .  S
N33         Co47   2.044       .  S
N34          N46   1.320       .  A
N34          N50   1.322       .  A
N34         Co43   2.066       .  S
C35          N39   1.356       .  A
C35          C49   1.443       .  S
C35         C168   1.440       .  S
C36          C55   1.440       .  S
C36          H40   1.081       .  S
N37          C48   1.351       .  A
N37         Co47   2.116       .  S
C41          N57   1.339       .  A
C41          C53   1.464       .  S
C41         C150   1.433       .  S
Co43        Cl54   2.453       .  S
N44          C55   1.357       .  A
C45         C155   1.432       .  S
Co47        Cl54   2.446       .  S
C55         C170   1.440       .  S
C58          N76   1.339       .  A
C58          C95   1.469       .  S
C58         C167   1.440       .  S
N59          N76   1.319       .  A
N59          N81   1.321       .  A
N59         Co96   2.056       .  S
C60          N85   1.336       .  A
C60          C98   1.447       .  S
C60         H105   1.082       .  S
H61         C102   1.081       .  S
C62          N86   1.352       .  A
C62          C66   1.468       .  S
C62          H91   1.081       .  S
Co63         N81   2.126       .  S
Co63         N71   2.050       .  S
Co63        N103   2.052       .  S
Co63         N79   2.117       .  S
Co63       Cl107   2.444       .  S
N64         C102   1.350       .  A
N64          N71   1.319       .  A
N64         Co65   2.103       .  S
Co65         N68   2.064       .  S
Co65         N85   2.072       .  S
Co65         N72   2.107       .  S
Co65       Cl107   2.455       .  S
C66         N104   1.340       .  A
C66         C165   1.441       .  S
N67          N74   1.318       .  A
N67          N97   1.316       .  A
N67        Co100   2.045       .  S
N68          N86   1.321       .  A
N68         N104   1.320       .  A
N69          C98   1.355       .  A
N69          N79   1.332       .  A
H70          C95   1.081       .  S
N71          N92   1.316       .  A
N72          N90   1.318       .  A
N72          N77   1.331       .  A
C73          N77   1.355       .  A
C73         C101   1.439       .  S
C73         C146   1.430       .  S
N74          C89   1.350       .  A
N74         Co96   2.100       .  S
C75         N103   1.333       .  A
C75          C78   1.443       .  S
C75         H109   1.082       .  S
C78          N99   1.353       .  A
C78         C142   1.431       .  S
N79          N85   1.322       .  A
N80         C106   1.333       .  A
N80          N82   1.321       .  A
N80         Co96   2.063       .  S
N81          C95   1.353       .  A
N82         N110   1.330       .  A
N82        Co100   2.105       .  S
H83         C106   1.082       .  S
H84         C101   1.082       .  S
N86        Co100   2.117       .  S
N87          N99   1.329       .  A
N87         N103   1.319       .  A
N87         Co96   2.102       .  S
C88          N92   1.337       .  A
C88         C102   1.463       .  S
C88         C158   1.429       .  S
C89         C108   1.463       .  S
C89          H93   1.081       .  S
N90         C101   1.330       .  A
N90        Co100   2.046       .  S
C94         N110   1.352       .  A
C94         C106   1.445       .  S
C94         C141   1.434       .  S
Co96       Cl107   2.454       .  S
N97         C108   1.337       .  A
C98         C145   1.445       .  S
Co100      Cl107   2.442       .  S
C108        C156   1.427       .  S
O111        C119   1.251       .  A
O111       Co131   2.000   1_556  S
O112        C120   1.261       .  A
O112       Co132   1.972   1_454  S
O113        C121   1.271   1_655  A
O113       Co304   2.015   1_545  S
O114        C122   1.241       .  A
O114       Co305   1.963   1_455  S
O115        C121   1.261       .  A
O115       Co132   1.971   1_455  S
O116        C122   1.252       .  A
O116       Co131   2.001       .  S
O117        C120   1.269   1_655  A
O117       Co134   2.011   1_545  S
O118        C119   1.241       .  A
O118       Co133   1.963   1_455  S
C119        C149   1.434       .  S
C120        C143   1.432       .  S
C121        C151   1.434       .  S
C122        C140   1.434       .  S
O123        C136   1.295       .  A
O123       Co473   2.072       .  S
O124        C137   1.265       .  A
O124       Co474   2.011       .  S
O125        C138   1.271       .  A
O125       Co475   1.900       .  S
O126        C139   1.259       .  A
O126       Co476   1.991   1_545  S
O127        C139   1.265       .  A
O127       Co474   2.012   1_554  S
O128        C138   1.295       .  A
O128       Co473   2.072   1_556  S
O129        C136   1.270       .  A
O129       Co647   1.898       .  S
O130        C137   1.258   1_565  A
O130       Co646   1.990       .  S
Co131       O465   2.072   1_455  S
Co131       O470   2.072   1_454  S
Co131       O306   2.264   1_554  S
Co132       O466   2.011       .  S
Co132       O469   2.012   1_556  S
Co132       O135   2.095   1_655  S
Co133       O284   2.015       .  S
Co133       O467   1.900       .  S
Co133       O643   1.990       .  S
Co133       O306   1.924   1_655  S
Co134       O285   1.963   1_665  S
Co134       O468   1.991   1_565  S
Co134       O642   1.898       .  S
Co134       O135   1.924   1_664  S
O135       Co302   2.264   1_546  S
O135       Co304   1.924   1_445  S
C136        C147   1.434       .  S
C137        C152   1.443       .  S
C138        C154   1.436       .  S
C139        C144   1.444       .  S
C140        C141   1.205       .  T
C142        C143   1.203       .  T
C144        C145   1.211       .  T
C146        C147   1.204       .  T
C148        C149   1.205       .  T
C150        C151   1.205       .  T
C152        C153   1.211       .  T
C154        C155   1.205       .  T
C156        C157   1.203       .  T
C157        C174   1.445       .  S
C158        C159   1.204       .  T
C160        C161   1.203       .  T
C162        C163   1.204       .  T
C163        C175   1.445       .  S
C164        C344   1.453       .  S
C164        C165   1.210       .  T
C166        C167   1.210       .  T
C168        C169   1.210       .  T
C170        C171   1.210       .  T
C171        C343   1.452       .  S
C172        C340   1.452       .  S
C172        C684   1.452       .  S
C172        C515   1.355       .  D
C173        C677   1.453   1_455  S
C173        C337   1.453       .  S
C173        C514   1.355       .  D
C174        C330   1.445       .  S
C175        C331   1.445   1_545  S
C176        N194   1.353       .  A
C176        C213   1.438       .  S
C176        C332   1.427       .  S
N177        N194   1.331       .  A
N177        N199   1.318       .  A
N177       Co214   2.103       .  S
C178        N203   1.351       .  A
C178        C216   1.468       .  S
C178        H223   1.081       .  S
H179        C220   1.081       .  S
C180        N204   1.329       .  A
C180        C184   1.438       .  S
C180        H209   1.082       .  S
Co181       N199   2.041       .  S
Co181       N189   2.117       .  S
Co181       N221   2.105       .  S
Co181       N197   2.048       .  S
Co181      Cl225   2.443       .  S
N182        C220   1.334       .  A
N182        N189   1.320       .  A
N182       Co183   2.062       .  S
Co183       N186   2.105       .  S
Co183       N203   2.109       .  S
Co183       N190   2.075       .  S
Co183      Cl225   2.455       .  S
C184        N222   1.353       .  A
C184        C333   1.429       .  S
N185        N192   1.321       .  A
N185        N215   1.333       .  A
N185       Co218   2.127       .  S
N186        N204   1.319       .  A
N186        N222   1.331       .  A
N187        C216   1.337       .  A
N187        N197   1.317       .  A
H188        C213   1.082       .  S
N189        N210   1.333       .  A
N190        N208   1.322       .  A
N190        N195   1.322       .  A
C191        N195   1.344       .  A
C191        C219   1.466       .  S
C191        C324   1.444       .  S
N192        C207   1.332       .  A
N192       Co214   2.053       .  S
C193        N221   1.348       .  A
C193        C196   1.461       .  S
C193        H227   1.081       .  S
C196        N217   1.342       .  A
C196        C319   1.434       .  S
N197        N203   1.319       .  A
N198        C224   1.348       .  A
N198        N200   1.320       .  A
N198       Co214   2.105       .  S
N199        C213   1.329       .  A
N200        N228   1.319       .  A
N200       Co218   2.053       .  S
H201        C224   1.081       .  S
H202        C219   1.081       .  S
N204       Co218   2.044       .  S
N205        N217   1.320       .  A
N205        N221   1.322       .  A
N205       Co214   2.066       .  S
C206        N210   1.356       .  A
C206        C220   1.443       .  S
C206        C339   1.440       .  S
C207        C226   1.440       .  S
C207        H211   1.081       .  S
N208        C219   1.351       .  A
N208       Co218   2.116       .  S
C212        N228   1.339       .  A
C212        C224   1.464       .  S
C212        C321   1.433       .  S
Co214      Cl225   2.453       .  S
N215        C226   1.357       .  A
C216        C326   1.432       .  S
Co218      Cl225   2.446       .  S
C226        C341   1.440       .  S
C229        N247   1.339       .  A
C229        C266   1.469       .  S
C229        C338   1.441       .  S
N230        N247   1.319       .  A
N230        N252   1.321       .  A
N230       Co267   2.056       .  S
C231        N256   1.336       .  A
C231        C269   1.447       .  S
C231        H276   1.082       .  S
H232        C273   1.081       .  S
C233        N257   1.352       .  A
C233        C237   1.468       .  S
C233        H262   1.081       .  S
Co234       N252   2.126       .  S
Co234       N242   2.049       .  S
Co234       N274   2.052       .  S
Co234       N250   2.117       .  S
Co234      Cl278   2.444       .  S
N235        C273   1.350       .  A
N235        N242   1.319       .  A
N235       Co236   2.103       .  S
Co236       N239   2.064       .  S
Co236       N256   2.072       .  S
Co236       N243   2.107       .  S
Co236      Cl278   2.455       .  S
C237        N275   1.340       .  A
C237        C336   1.441       .  S
N238        N245   1.318       .  A
N238        N268   1.316       .  A
N238       Co271   2.045       .  S
N239        N257   1.321       .  A
N239        N275   1.320       .  A
N240        C269   1.356       .  A
N240        N250   1.332       .  A
H241        C266   1.081       .  S
N242        N263   1.316       .  A
N243        N261   1.319       .  A
N243        N248   1.331       .  A
C244        N248   1.355       .  A
C244        C272   1.439       .  S
C244        C317   1.430       .  S
N245        C260   1.350       .  A
N245       Co267   2.100       .  S
C246        N274   1.333       .  A
C246        C249   1.443       .  S
C246        H280   1.082       .  S
C249        N270   1.353       .  A
C249        C313   1.431       .  S
N250        N256   1.322       .  A
N251        C277   1.333       .  A
N251        N253   1.321       .  A
N251       Co267   2.063       .  S
N252        C266   1.353       .  A
N253        N281   1.330       .  A
N253       Co271   2.105       .  S
H254        C277   1.082       .  S
H255        C272   1.082       .  S
N257       Co271   2.117       .  S
N258        N270   1.329       .  A
N258        N274   1.319       .  A
N258       Co267   2.102       .  S
C259        N263   1.337       .  A
C259        C273   1.463       .  S
C259        C329   1.429       .  S
C260        C279   1.463       .  S
C260        H264   1.081       .  S
N261        C272   1.330       .  A
N261       Co271   2.046       .  S
C265        N281   1.352       .  A
C265        C277   1.445       .  S
C265        C312   1.434       .  S
Co267      Cl278   2.454       .  S
N268        C279   1.337       .  A
C269        C316   1.445       .  S
Co271      Cl278   2.442       .  S
C279        C327   1.427       .  S
O282        C290   1.251       .  A
O282       Co302   2.000   1_556  S
O283        C291   1.261       .  A
O283       Co303   1.972   1_454  S
O284        C292   1.271   1_655  A
O285        C293   1.241   1_545  A
O286        C292   1.261       .  A
O286       Co303   1.971   1_455  S
O287        C293   1.252       .  A
O287       Co302   2.001       .  S
O288        C291   1.269   1_655  A
O288       Co305   2.011       .  S
O289        C290   1.241   1_545  A
O289       Co304   1.963   1_445  S
C290        C320   1.434       .  S
C291        C314   1.432       .  S
C292        C322   1.434       .  S
C293        C311   1.434       .  S
O294        C307   1.295       .  A
O294       Co644   2.072       .  S
O295        C308   1.265       .  A
O295       Co645   2.011       .  S
O296        C309   1.271       .  A
O296       Co646   1.900       .  S
O297        C310   1.259       .  A
O297       Co647   1.991       .  S
O298        C310   1.265       .  A
O298       Co645   2.012   1_554  S
O299        C309   1.295       .  A
O299       Co644   2.072   1_556  S
O300        C307   1.270       .  A
O300       Co476   1.898       .  S
O301        C308   1.258       .  A
O301       Co475   1.990       .  S
Co302       O636   2.072   1_455  S
Co302       O641   2.072   1_454  S
Co303       O637   2.011       .  S
Co303       O640   2.012   1_556  S
Co303       O306   2.095   1_655  S
Co304       O638   1.900       .  S
Co304       O472   1.990       .  S
Co305       O639   1.991       .  S
Co305       O471   1.898       .  S
Co305       O306   1.924   1_654  S
C307        C318   1.434       .  S
C308        C323   1.443       .  S
C309        C325   1.436       .  S
C310        C315   1.444       .  S
C311        C312   1.205       .  T
C313        C314   1.203       .  T
C315        C316   1.211       .  T
C317        C318   1.204       .  T
C319        C320   1.205       .  T
C321        C322   1.205       .  T
C323        C324   1.211       .  T
C325        C326   1.205       .  T
C327        C328   1.203       .  T
C329        C330   1.204       .  T
C331        C332   1.203       .  T
C333        C334   1.204       .  T
C335        C515   1.453       .  S
C335        C336   1.210       .  T
C337        C338   1.210       .  T
C339        C340   1.210       .  T
C341        C342   1.210       .  T
C342        C514   1.452       .  S
C343        C511   1.452   1_455  S
C344        C508   1.453       .  S
C345        C670   1.445   1_545  S
C345        C501   1.445       .  S
C345        C517   1.341       .  D
C346        C502   1.445       .  S
C346        C676   1.445       .  S
C346        C516   1.341       .  D
C347        N365   1.353       .  A
C347        C384   1.438       .  S
C347        C503   1.427       .  S
N348        N365   1.331       .  A
N348        N370   1.318       .  A
N348       Co385   2.103       .  S
C349        N374   1.351       .  A
C349        C387   1.468       .  S
C349        H394   1.081       .  S
H350        C391   1.081       .  S
C351        N375   1.329       .  A
C351        C355   1.438       .  S
C351        H380   1.082       .  S
Co352       N370   2.041       .  S
Co352       N360   2.117       .  S
Co352       N392   2.105       .  S
Co352       N368   2.048       .  S
Co352      Cl396   2.443       .  S
N353        C391   1.334       .  A
N353        N360   1.320       .  A
N353       Co354   2.062       .  S
Co354       N357   2.104       .  S
Co354       N374   2.109       .  S
Co354       N361   2.075       .  S
Co354      Cl396   2.455       .  S
C355        N393   1.353       .  A
C355        C504   1.429       .  S
N356        N363   1.321       .  A
N356        N386   1.333       .  A
N356       Co389   2.127       .  S
N357        N375   1.319       .  A
N357        N393   1.331       .  A
N358        C387   1.337       .  A
N358        N368   1.317       .  A
H359        C384   1.082       .  S
N360        N381   1.333       .  A
N361        N379   1.322       .  A
N361        N366   1.322       .  A
C362        N366   1.344       .  A
C362        C390   1.466       .  S
C362        C495   1.444       .  S
N363        C378   1.332       .  A
N363       Co385   2.053       .  S
C364        N392   1.348       .  A
C364        C367   1.461       .  S
C364        H398   1.081       .  S
C367        N388   1.342       .  A
C367        C490   1.434       .  S
N368        N374   1.319       .  A
N369        C395   1.348       .  A
N369        N371   1.320       .  A
N369       Co385   2.105       .  S
N370        C384   1.329       .  A
N371        N399   1.319       .  A
N371       Co389   2.053       .  S
H372        C395   1.081       .  S
H373        C390   1.081       .  S
N375       Co389   2.044       .  S
N376        N388   1.320       .  A
N376        N392   1.322       .  A
N376       Co385   2.066       .  S
C377        N381   1.356       .  A
C377        C391   1.443       .  S
C377        C510   1.440       .  S
C378        C397   1.440       .  S
C378        H382   1.081       .  S
N379        C390   1.351       .  A
N379       Co389   2.116       .  S
C383        N399   1.339       .  A
C383        C395   1.464       .  S
C383        C492   1.433       .  S
Co385      Cl396   2.453       .  S
N386        C397   1.357       .  A
C387        C497   1.432       .  S
Co389      Cl396   2.446       .  S
C397        C512   1.439       .  S
C400        N418   1.339       .  A
C400        C437   1.469       .  S
C400        C509   1.440       .  S
N401        N418   1.319       .  A
N401        N423   1.321       .  A
N401       Co438   2.056       .  S
C402        N427   1.336       .  A
C402        C440   1.447       .  S
C402        H447   1.082       .  S
H403        C444   1.081       .  S
C404        N428   1.352       .  A
C404        C408   1.468       .  S
C404        H433   1.081       .  S
Co405       N423   2.126       .  S
Co405       N413   2.049       .  S
Co405       N445   2.052       .  S
Co405       N421   2.117       .  S
Co405      Cl449   2.444       .  S
N406        C444   1.350       .  A
N406        N413   1.319       .  A
N406       Co407   2.103       .  S
Co407       N410   2.064       .  S
Co407       N427   2.072       .  S
Co407       N414   2.107       .  S
Co407      Cl449   2.455       .  S
C408        N446   1.340       .  A
C408        C507   1.441       .  S
N409        N416   1.318       .  A
N409        N439   1.316       .  A
N409       Co442   2.045       .  S
N410        N428   1.321       .  A
N410        N446   1.320       .  A
N411        C440   1.356       .  A
N411        N421   1.332       .  A
H412        C437   1.081       .  S
N413        N434   1.316       .  A
N414        N432   1.319       .  A
N414        N419   1.331       .  A
C415        N419   1.355       .  A
C415        C443   1.439       .  S
C415        C488   1.430       .  S
N416        C431   1.350       .  A
N416       Co438   2.100       .  S
C417        N445   1.333       .  A
C417        C420   1.443       .  S
C417        H451   1.082       .  S
C420        N441   1.353       .  A
C420        C484   1.431       .  S
N421        N427   1.322       .  A
N422        C448   1.333       .  A
N422        N424   1.321       .  A
N422       Co438   2.063       .  S
N423        C437   1.353       .  A
N424        N452   1.330       .  A
N424       Co442   2.105       .  S
H425        C448   1.082       .  S
H426        C443   1.082       .  S
N428       Co442   2.117       .  S
N429        N441   1.329       .  A
N429        N445   1.319       .  A
N429       Co438   2.102       .  S
C430        N434   1.337       .  A
C430        C444   1.463       .  S
C430        C500   1.429       .  S
C431        C450   1.463       .  S
C431        H435   1.081       .  S
N432        C443   1.330       .  A
N432       Co442   2.046       .  S
C436        N452   1.352       .  A
C436        C448   1.445       .  S
C436        C483   1.434       .  S
Co438      Cl449   2.454       .  S
N439        C450   1.337       .  A
C440        C487   1.445       .  S
Co442      Cl449   2.442       .  S
C450        C498   1.427       .  S
O453        C461   1.251       .  A
O453       Co473   2.000   1_556  S
O454        C462   1.261       .  A
O454       Co474   1.972   1_554  S
O455        C463   1.271       .  A
O455       Co646   2.015   1_545  S
O456        C464   1.241       .  A
O456       Co647   1.963       .  S
O457        C463   1.261       .  A
O457       Co474   1.971       .  S
O458        C464   1.252       .  A
O458       Co473   2.001       .  S
O459        C462   1.269       .  A
O459       Co476   2.011   1_545  S
O460        C461   1.241       .  A
O460       Co475   1.963       .  S
C461        C491   1.434       .  S
C462        C485   1.432       .  S
C463        C493   1.434       .  S
C464        C482   1.434       .  S
O465        C478   1.295       .  A
O466        C479   1.265       .  A
O467        C480   1.271       .  A
O468        C481   1.259       .  A
O469        C481   1.265       .  A
O470        C480   1.295       .  A
O471        C478   1.270       .  A
O472        C479   1.258   1_565  A
Co473       O648   2.264   1_554  S
Co474       O477   2.095       .  S
Co475       O626   2.015       .  S
Co475       O648   1.924       .  S
Co476       O627   1.963   1_565  S
Co476       O477   1.924   1_564  S
O477       Co644   2.264   1_546  S
O477       Co646   1.924   1_545  S
C478        C489   1.434       .  S
C479        C494   1.443       .  S
C480        C496   1.436       .  S
C481        C486   1.444       .  S
C482        C483   1.205       .  T
C484        C485   1.203       .  T
C486        C487   1.211       .  T
C488        C489   1.204       .  T
C490        C491   1.205       .  T
C492        C493   1.205       .  T
C494        C495   1.211       .  T
C496        C497   1.205       .  T
C498        C499   1.203       .  T
C499        C516   1.445       .  S
C500        C501   1.204       .  T
C502        C503   1.203       .  T
C504        C505   1.204       .  T
C505        C517   1.445       .  S
C506        C507   1.210       .  T
C508        C509   1.210       .  T
C510        C511   1.210       .  T
C512        C513   1.210       .  T
C514        C682   1.452   1_455  S
C515        C679   1.453       .  S
C516        C672   1.445       .  S
C517        C673   1.445   1_545  S
C518        N536   1.353       .  A
C518        C555   1.438       .  S
C518        C674   1.427       .  S
N519        N536   1.331       .  A
N519        N541   1.318       .  A
N519       Co556   2.103       .  S
C520        N545   1.351       .  A
C520        C558   1.468       .  S
C520        H565   1.081       .  S
H521        C562   1.081       .  S
C522        N546   1.329       .  A
C522        C526   1.438       .  S
C522        H551   1.082       .  S
Co523       N541   2.041       .  S
Co523       N531   2.117       .  S
Co523       N563   2.105       .  S
Co523       N539   2.048       .  S
Co523      Cl567   2.443       .  S
N524        C562   1.334       .  A
N524        N531   1.320       .  A
N524       Co525   2.062       .  S
Co525       N528   2.105       .  S
Co525       N545   2.109       .  S
Co525       N532   2.075       .  S
Co525      Cl567   2.455       .  S
C526        N564   1.353       .  A
C526        C675   1.429       .  S
N527        N534   1.321       .  A
N527        N557   1.333       .  A
N527       Co560   2.127       .  S
N528        N546   1.319       .  A
N528        N564   1.331       .  A
N529        C558   1.337       .  A
N529        N539   1.317       .  A
H530        C555   1.082       .  S
N531        N552   1.333       .  A
N532        N550   1.322       .  A
N532        N537   1.322       .  A
C533        N537   1.344       .  A
C533        C561   1.466       .  S
C533        C666   1.444       .  S
N534        C549   1.332       .  A
N534       Co556   2.053       .  S
C535        N563   1.348       .  A
C535        C538   1.461       .  S
C535        H569   1.081       .  S
C538        N559   1.342       .  A
C538        C661   1.434       .  S
N539        N545   1.319       .  A
N540        C566   1.348       .  A
N540        N542   1.320       .  A
N540       Co556   2.105       .  S
N541        C555   1.329       .  A
N542        N570   1.319       .  A
N542       Co560   2.053       .  S
H543        C566   1.081       .  S
H544        C561   1.081       .  S
N546       Co560   2.044       .  S
N547        N559   1.320       .  A
N547        N563   1.322       .  A
N547       Co556   2.066       .  S
C548        N552   1.356       .  A
C548        C562   1.443       .  S
C548        C681   1.440       .  S
C549        C568   1.440       .  S
C549        H553   1.081       .  S
N550        C561   1.351       .  A
N550       Co560   2.116       .  S
C554        N570   1.339       .  A
C554        C566   1.464       .  S
C554        C663   1.433       .  S
Co556      Cl567   2.453       .  S
N557        C568   1.357       .  A
C558        C668   1.432       .  S
Co560      Cl567   2.446       .  S
C568        C683   1.440       .  S
C571        N589   1.339       .  A
C571        C608   1.469       .  S
C571        C680   1.441       .  S
N572        N589   1.319       .  A
N572        N594   1.321       .  A
N572       Co609   2.056       .  S
C573        N598   1.336       .  A
C573        C611   1.447       .  S
C573        H618   1.082       .  S
H574        C615   1.081       .  S
C575        N599   1.352       .  A
C575        C579   1.468       .  S
C575        H604   1.081       .  S
Co576       N594   2.126       .  S
Co576       N584   2.049       .  S
Co576       N616   2.052       .  S
Co576       N592   2.117       .  S
Co576      Cl620   2.444       .  S
N577        C615   1.350       .  A
N577        N584   1.319       .  A
N577       Co578   2.103       .  S
Co578       N581   2.064       .  S
Co578       N598   2.072       .  S
Co578       N585   2.107       .  S
Co578      Cl620   2.455       .  S
C579        N617   1.340       .  A
C579        C678   1.441       .  S
N580        N587   1.318       .  A
N580        N610   1.316       .  A
N580       Co613   2.045       .  S
N581        N599   1.321       .  A
N581        N617   1.320       .  A
N582        C611   1.356       .  A
N582        N592   1.332       .  A
H583        C608   1.081       .  S
N584        N605   1.316       .  A
N585        N603   1.319       .  A
N585        N590   1.331       .  A
C586        N590   1.355       .  A
C586        C614   1.439       .  S
C586        C659   1.430       .  S
N587        C602   1.350       .  A
N587       Co609   2.100       .  S
C588        N616   1.333       .  A
C588        C591   1.443       .  S
C588        H622   1.082       .  S
C591        N612   1.353       .  A
C591        C655   1.431       .  S
N592        N598   1.322       .  A
N593        C619   1.333       .  A
N593        N595   1.321       .  A
N593       Co609   2.063       .  S
N594        C608   1.353       .  A
N595        N623   1.330       .  A
N595       Co613   2.105       .  S
H596        C619   1.082       .  S
H597        C614   1.082       .  S
N599       Co613   2.117       .  S
N600        N612   1.329       .  A
N600        N616   1.319       .  A
N600       Co609   2.102       .  S
C601        N605   1.337       .  A
C601        C615   1.463       .  S
C601        C671   1.429       .  S
C602        C621   1.463       .  S
C602        H606   1.081       .  S
N603        C614   1.330       .  A
N603       Co613   2.046       .  S
C607        N623   1.352       .  A
C607        C619   1.445       .  S
C607        C654   1.434       .  S
Co609      Cl620   2.454       .  S
N610        C621   1.337       .  A
C611        C658   1.445       .  S
Co613      Cl620   2.442       .  S
C621        C669   1.427       .  S
O624        C632   1.251       .  A
O624       Co644   2.000   1_556  S
O625        C633   1.261       .  A
O625       Co645   1.972   1_554  S
O626        C634   1.271       .  A
O627        C635   1.241   1_545  A
O628        C634   1.261       .  A
O628       Co645   1.971       .  S
O629        C635   1.252       .  A
O629       Co644   2.001       .  S
O630        C633   1.269       .  A
O630       Co647   2.011       .  S
O631        C632   1.241   1_545  A
O631       Co646   1.963   1_545  S
C632        C662   1.434       .  S
C633        C656   1.432       .  S
C634        C664   1.434       .  S
C635        C653   1.434       .  S
O636        C649   1.295       .  A
O637        C650   1.265       .  A
O638        C651   1.271       .  A
O639        C652   1.259       .  A
O640        C652   1.265       .  A
O641        C651   1.295       .  A
O642        C649   1.270       .  A
O643        C650   1.258       .  A
Co645       O648   2.094       .  S
Co647       O648   1.924   1_554  S
C649        C660   1.434       .  S
C650        C665   1.443       .  S
C651        C667   1.436       .  S
C652        C657   1.444       .  S
C653        C654   1.205       .  T
C655        C656   1.203       .  T
C657        C658   1.211       .  T
C659        C660   1.204       .  T
C661        C662   1.205       .  T
C663        C664   1.205       .  T
C665        C666   1.211       .  T
C667        C668   1.205       .  T
C669        C670   1.203       .  T
C671        C672   1.204       .  T
C673        C674   1.203       .  T
C675        C676   1.204       .  T
C677        C678   1.210       .  T
C679        C680   1.210       .  T
C681        C682   1.210       .  T
C683        C684   1.210       .  T
