geometry optimzed in LAMMPS
_audit_creation_date              2020-11-30 
_audit_creation_method            'lammps2cif' 
_symmetry_space_group_name_H-M    'P1' 
_symmetry_Int_Tables_number       1 
_symmetry_cell_setting            triclinic 
loop_ 
_symmetry_equiv_pos_as_xyz 
  x,y,z 
_cell_length_a                    42.00889815 
_cell_length_b                    46.27436502175402 
_cell_length_c                    54.5818843161936 
_cell_angle_alpha                 90.19207824379926 
_cell_angle_beta                  109.53993878196623 
_cell_angle_gamma                 89.715343708164 
loop_ 
_atom_site_label 
_atom_site_type_symbol 
_atom_site_fract_x 
_atom_site_fract_y 
_atom_site_fract_z 
_atom_site_charge 
N1          N  0.98097912  0.67402488  0.60575659    -0.26500
N2          N  0.98572881  0.67913278  0.63059782    -0.34400
C3          C  0.97898514  0.70728756  0.63331343     0.01800
C4          C  0.96924945  0.72038648  0.60899427     0.07800
C5          C  0.97101354  0.69851244  0.59213603    -0.05300
H6          H  0.98075907  0.71741684  0.65160563     0.08500
H7          H  0.96612573  0.70024856  0.57143764     0.09700
Cu8        Cu  0.00117085  0.64726008  0.65952969     0.44200
Cu9        Cu  0.98808641  0.63447512  0.59032298     0.42000
Cu10       Cu  0.01450698  0.57640476  0.63457012     0.43900
N11         N  0.01704386  0.61039240  0.68281014    -0.33900
N12         N  0.02192091  0.58505595  0.67332093    -0.28200
C13         C  0.03210310  0.56574360  0.69269936    -0.04300
C14         C  0.03408959  0.57931638  0.71580959     0.08000
C15         C  0.02403087  0.60765273  0.70871279     0.01700
H16         H  0.03687190  0.54321343  0.68985615     0.09400
H17         H  0.02216737  0.62505953  0.72145826     0.08500
N18         N  0.00502403  0.57143130  0.59506848    -0.35400
N19         N  0.99522495  0.59304196  0.57851055    -0.27500
C20         C  0.99028011  0.58314355  0.55430972    -0.02800
C21         C  0.99735111  0.55370485  0.55566165     0.05800
C22         C  0.00661222  0.54715705  0.58193548     0.03900
H23         H  0.98128403  0.59638631  0.53706460     0.09000
H24         H  0.01401866  0.52629380  0.59095702     0.07900
C25         C  0.90633042  0.98132307  0.58491140     0.87300
C26         C  0.91393779  0.94932729  0.59153447    -0.53000
C27         C  0.90621095  0.93109393  0.57066118     0.10200
C28         C  0.89176590  0.94704144  0.54436373     0.21100
C29         C  0.92529064  0.98849421  0.56603396    -0.53700
C30         C  0.91820871  0.97044389  0.54507834     0.10300
C31         C  0.86881315  0.98194236  0.56770504    -0.53200
C32         C  0.86101806  0.96431333  0.54635327     0.10900
H33         H  0.92555921  0.94196486  0.61142103     0.15400
H34         H  0.88570451  0.93268246  0.52708744     0.01100
H35         H  0.94360233  0.00582755  0.56935921     0.15700
H36         H  0.84963125  0.99487338  0.57153900     0.15500
N37         N  0.02903170  0.28972361  0.37288037    -0.26500
N38         N  0.02248290  0.28403458  0.34795149    -0.34400
C39         C  0.02804494  0.25579189  0.34509459     0.01800
C40         C  0.03892385  0.24274263  0.36945612     0.07800
C41         C  0.03914922  0.26521174  0.38654191    -0.05300
H42         H  0.02335234  0.24572501  0.32636737     0.08500
H43         H  0.04565108  0.26394413  0.40741048     0.09700
Cu44       Cu  0.00506296  0.31443081  0.31844007     0.44200
Cu45       Cu  0.02175745  0.33018923  0.38703800     0.42000
Cu46       Cu  0.98715024  0.38531196  0.33826213     0.43900
N47         N  0.98701468  0.34841175  0.29261599    -0.33900
N48         N  0.98021552  0.37424476  0.29999308    -0.28200
C49         C  0.96913740  0.39147539  0.27906489    -0.04300
C50         C  0.96890799  0.37587482  0.25721867     0.08000
C51         C  0.98054338  0.34856325  0.26673304     0.01700
H52         H  0.96179853  0.41378946  0.27986217     0.09400
H53         H  0.98485657  0.33020451  0.25594449     0.08500
N54         N  0.99672583  0.39182376  0.37766922    -0.35400
N55         N  0.00962865  0.37187134  0.39555720    -0.27500
C56         C  0.01251268  0.38294503  0.41903419    -0.02800
C57         C  0.00089268  0.41130355  0.41581148     0.05800
C58         C  0.99100776  0.41605267  0.38924951     0.03900
H59         H  0.02166449  0.37089393  0.43698958     0.09000
H60         H  0.98060583  0.43575357  0.37901871     0.07900
C61         C  0.07670627  0.97822653  0.39103776     0.87300
C62         C  0.05534432  0.97200186  0.40859069    -0.53000
C63         C  0.06150508  0.99006141  0.42954564     0.10200
C64         C  0.08923591  0.01261299  0.43147359     0.21100
C65         C  0.06998081  0.01039309  0.38418334    -0.53700
C66         C  0.07657236  0.02849401  0.40515508     0.10300
C67         C  0.11344371  0.97709811  0.40961461    -0.53200
C68         C  0.12019084  0.99518254  0.43053431     0.10900
H69         H  0.03638390  0.95539454  0.40508284     0.15400
H70         H  0.09447359  0.02719423  0.44854274     0.01100
H71         H  0.06103209  0.01817477  0.36427471     0.15700
H72         H  0.13288930  0.96394378  0.40597105     0.15500
N73         N  0.98323239  0.77417960  0.10876788    -0.26500
N74         N  0.98618967  0.76937873  0.13333648    -0.34400
C75         C  0.97857094  0.74145024  0.13573107     0.01800
C76         C  0.97006852  0.72817877  0.11150081     0.07800
C77         C  0.97351186  0.74970581  0.09501481    -0.05300
H78         H  0.97901472  0.73156675  0.15377648     0.08500
H79         H  0.97013718  0.74767029  0.07457155     0.09700
Cu80       Cu  0.00045317  0.80117105  0.16258604     0.44200
Cu81       Cu  0.99314782  0.81310175  0.09394297     0.42000
Cu82       Cu  0.01944527  0.87027450  0.13966939     0.43900
N83         N  0.01526498  0.83785737  0.18648375    -0.33900
N84         N  0.02229303  0.86271278  0.17764653    -0.28200
C85         C  0.03094749  0.88220014  0.19699089    -0.04300
C86         C  0.02935969  0.86938978  0.21949076     0.08000
C87         C  0.01923718  0.84108585  0.21194729     0.01700
H88         H  0.03804151  0.90415970  0.19464216     0.09400
H89         H  0.01447232  0.82411349  0.22381029     0.08500
N90         N  0.01470534  0.87498420  0.10097489    -0.35400
N91         N  0.00487961  0.85388790  0.08380673    -0.27500
C92         C  0.00384927  0.86378752  0.06038511    -0.02800
C93         C  0.01367962  0.89257730  0.06298984     0.05800
C94         C  0.02020414  0.89885816  0.08907091     0.03900
H95         H  0.99656751  0.85092079  0.04281207     0.09000
H96         H  0.02754826  0.91941094  0.09872741     0.07900
C97         C  0.91558565  0.46739582  0.07928761     0.87300
C98         C  0.93563140  0.45931802  0.06112815    -0.53000
C99         C  0.93059062  0.47767809  0.04046274     0.10200
C100        C  0.90502864  0.50223886  0.03955429     0.21100
C101        C  0.92539537  0.49894238  0.08674881    -0.53700
C102        C  0.91978721  0.51718461  0.06620579     0.10300
C103        C  0.87867608  0.46864860  0.06118103    -0.53200
C104        C  0.87296083  0.48690663  0.04059229     0.10900
H105        H  0.95274655  0.44114603  0.06408634     0.15400
H106        H  0.90045592  0.51740883  0.02301169     0.01100
H107        H  0.93559882  0.50635221  0.10677003     0.15700
H108        H  0.85852383  0.45652584  0.06465367     0.15500
N109        N  0.04613939  0.15431079  0.88084074    -0.26500
N110        N  0.04256235  0.15933424  0.85624199    -0.34400
C111        C  0.04704432  0.18764646  0.85321313     0.01800
C112        C  0.05368120  0.20141152  0.87702051     0.07800
C113        C  0.05290564  0.17941302  0.89409177    -0.05300
H114        H  0.04508302  0.19745528  0.83480518     0.08500
H115        H  0.05577433  0.18143173  0.91445114     0.09700
Cu116      Cu  0.02865351  0.12839895  0.82705006     0.44200
Cu117      Cu  0.03985596  0.11376366  0.89494550     0.42000
Cu118      Cu  0.01190165  0.05741193  0.84619519     0.43900
N119        N  0.00927398  0.09517188  0.80079685    -0.33900
N120        N  0.00282423  0.06921391  0.80790752    -0.28200
C121        C  0.98924612  0.05289013  0.78659001    -0.04300
C122        C  0.98707751  0.06928473  0.76487219     0.08000
C123        C  0.00001751  0.09606176  0.77470822     0.01700
H124        H  0.98170207  0.03062842  0.78696587     0.09400
H125        H  0.00182100  0.11508944  0.76382271     0.08500
N126        N  0.02097508  0.05084361  0.88544501    -0.35400
N127        N  0.03087215  0.07133498  0.90327982    -0.27500
C128        C  0.03323896  0.06011999  0.92654233    -0.02800
C129        C  0.02458497  0.03110804  0.92323244     0.05800
C130        C  0.01689758  0.02609110  0.89684459     0.03900
H131        H  0.04071993  0.07225498  0.94454145     0.09000
H132        H  0.00796265  0.00620196  0.88642360     0.07900
C133        C  0.08560316  0.46570130  0.88348461     0.87300
C134        C  0.08181768  0.43273208  0.87910549    -0.53000
C135        C  0.08980474  0.41677265  0.90135202     0.10200
C136        C  0.10098321  0.43521977  0.92630234     0.21100
C137        C  0.06404708  0.47283812  0.90051130    -0.53700
C138        C  0.07187809  0.45697689  0.92276318     0.10300
C139        C  0.12244131  0.46907659  0.90153910    -0.53200
C140        C  0.13076012  0.45329384  0.92402402     0.10900
H141        H  0.07396183  0.42225217  0.86035144     0.15400
H142        H  0.10702023  0.42247190  0.94448912     0.01100
H143        H  0.04376662  0.48872723  0.89514237     0.15700
H144        H  0.14067319  0.48221946  0.89649475     0.15500
N145        N  0.44238082  0.15387501  0.09065291    -0.26500
N146        N  0.44985326  0.16016535  0.11558861    -0.34400
C147        C  0.44495943  0.18862766  0.11803617     0.01800
C148        C  0.43388324  0.20096544  0.09346623     0.07800
C149        C  0.43266971  0.17817806  0.07662415    -0.05300
H150        H  0.45045435  0.19961996  0.13650181     0.08500
H151        H  0.42568439  0.17918071  0.05568192     0.09700
Cu152      Cu  0.46832984  0.13029362  0.14548356     0.44200
Cu153      Cu  0.44769752  0.11301745  0.07667747     0.42000
Cu154      Cu  0.48666082  0.05945186  0.12527933     0.43900
N155        N  0.48689294  0.09618192  0.17112361    -0.33900
N156        N  0.49355593  0.07040116  0.16350108    -0.28200
C157        C  0.50388068  0.05273710  0.18415042    -0.04300
C158        C  0.50387887  0.06801725  0.20601696     0.08000
C159        C  0.49297959  0.09559224  0.19697263     0.01700
H160        H  0.51070924  0.03029120  0.18320146     0.09400
H161        H  0.48870402  0.11366681  0.20810130     0.08500
N162        N  0.47398895  0.05199175  0.08576865    -0.35400
N163        N  0.45891220  0.07136709  0.06788059    -0.27500
C164        C  0.45363535  0.05979297  0.04422140    -0.02800
C165        C  0.46605207  0.03172822  0.04735757     0.05800
C166        C  0.47888731  0.02762420  0.07401338     0.03900
H167        H  0.44245480  0.07133939  0.02615118     0.09000
H168        H  0.49071847  0.00829503  0.08417012     0.07900
C169        C  0.42005432  0.46359747  0.08546622     0.87300
C170        C  0.42412564  0.43047016  0.08849606    -0.53000
C171        C  0.41484529  0.41578997  0.06550477     0.10200
C172        C  0.40216272  0.43521102  0.04135172     0.21100
C173        C  0.44011722  0.47164388  0.06761958    -0.53700
C174        C  0.43108284  0.45699690  0.04447104     0.10300
C175        C  0.38267103  0.46749530  0.06878325    -0.53200
C176        C  0.37324522  0.45284133  0.04570499     0.10900
H177        H  0.43188264  0.41890669  0.10675971     0.15400
H178        H  0.39422036  0.42296249  0.02277387     0.01100
H179        H  0.46096480  0.48678140  0.07366707     0.15700
H180        H  0.36496447  0.48033150  0.07492843     0.15500
N181        N  0.52539511  0.77777820  0.86717184    -0.26500
N182        N  0.52403130  0.77234556  0.84304950    -0.34400
C183        C  0.53072034  0.74411047  0.84109976     0.01800
C184        C  0.53645152  0.73102080  0.86511915     0.07800
C185        C  0.53276000  0.75325714  0.88107886    -0.05300
H186        H  0.53065615  0.73382158  0.82325817     0.08500
H187        H  0.53365656  0.75177463  0.90103713     0.09700
Cu188      Cu  0.50990371  0.80287506  0.81318852     0.44200
Cu189      Cu  0.51417366  0.81725130  0.88036185     0.42000
Cu190      Cu  0.47688916  0.86928848  0.83144001     0.43900
N191        N  0.49130864  0.83739624  0.78778584    -0.33900
N192        N  0.47937869  0.86132933  0.79486801    -0.28200
C193        C  0.46980377  0.87973311  0.77476937    -0.04300
C194        C  0.47588848  0.86698414  0.75381845     0.08000
C195        C  0.48929775  0.83997126  0.76269049     0.01700
H196        H  0.45878750  0.90078591  0.77538699     0.09400
H197        H  0.49742386  0.82360464  0.75184762     0.08500
N198        N  0.48144383  0.87559836  0.86993080    -0.35400
N199        N  0.49623471  0.85668291  0.88826803    -0.27500
C200        C  0.49669555  0.86731081  0.91132165    -0.02800
C201        C  0.48140325  0.89438852  0.90737363     0.05800
C202        C  0.47191100  0.89875917  0.88071893     0.03900
H203        H  0.50782097  0.85618806  0.92962766     0.09000
H204        H  0.45890037  0.91718308  0.86970487     0.07900
C205        C  0.58476018  0.46808633  0.88651089     0.87300
C206        C  0.56698594  0.45896336  0.90590838    -0.53000
C207        C  0.57322134  0.47685693  0.92697954     0.10200
C208        C  0.59722204  0.50205655  0.92714291     0.21100
C209        C  0.57363051  0.49962387  0.87999152    -0.53700
C210        C  0.58005961  0.51746280  0.90102942     0.10300
C211        C  0.62225777  0.46983921  0.90315112    -0.53200
C212        C  0.62908804  0.48773868  0.92422363     0.10900
H213        H  0.54957612  0.44111288  0.90313105     0.15400
H214        H  0.60242422  0.51649161  0.94432692     0.01100
H215        H  0.56219882  0.50729342  0.86017028     0.15700
H216        H  0.64189555  0.45804530  0.89845184     0.15500
N217        N  0.51774646  0.66552769  0.36815134    -0.26500
N218        N  0.51238188  0.67183531  0.34346048    -0.34400
C219        C  0.51637342  0.70050311  0.34150674     0.01800
C220        C  0.52467096  0.71291392  0.36610416     0.07800
C221        C  0.52531925  0.68985517  0.38242156    -0.05300
H222        H  0.51355727  0.71142935  0.32341669     0.08500
H223        H  0.53186314  0.69026950  0.40331024     0.09700
Cu224      Cu  0.50108580  0.64126993  0.31332710     0.44200
Cu225      Cu  0.51621240  0.62440613  0.38268623     0.42000
Cu226      Cu  0.50072425  0.56809402  0.33649559     0.43900
N227        N  0.49100971  0.60497697  0.28887838    -0.33900
N228        N  0.49119991  0.57856108  0.29805457    -0.28200
C229        C  0.48321573  0.55956931  0.27839138    -0.04300
C230        C  0.47726487  0.57443898  0.25536228     0.08000
C231        C  0.48284744  0.60329949  0.26276239     0.01700
H232        H  0.48209029  0.53646864  0.28089675     0.09400
H233        H  0.48042713  0.62170144  0.25008531     0.08500
N234        N  0.50889332  0.56045718  0.37526538    -0.35400
N235        N  0.51486705  0.58137450  0.39267662    -0.27500
C236        C  0.51945410  0.56975452  0.41617028    -0.02800
C237        C  0.51617280  0.53998537  0.41332449     0.05800
C238        C  0.50928206  0.53495710  0.38704379     0.03900
H239        H  0.52419629  0.58216838  0.43384612     0.09000
H240        H  0.50518870  0.51428383  0.37719223     0.07900
C241        C  0.57491301  0.97404906  0.38397254     0.87300
C242        C  0.56844528  0.94162063  0.37888640    -0.53000
C243        C  0.57525008  0.92504542  0.40071486     0.10200
C244        C  0.58926590  0.94260886  0.42613024     0.21100
C245        C  0.55496891  0.98240122  0.40194387    -0.53700
C246        C  0.56219964  0.96606691  0.42398574     0.10300
C247        C  0.61228624  0.97543925  0.40150471    -0.53200
C248        C  0.61984294  0.95899593  0.42348357     0.10900
H249        H  0.55876781  0.93259299  0.35940048     0.15400
H250        H  0.59544462  0.92942457  0.44406803     0.01100
H251        H  0.53547007  0.99897300  0.39681125     0.15700
H252        H  0.63173477  0.98780839  0.39733387     0.15500
N253        N  0.48814354  0.27873742  0.59758443    -0.26500
N254        N  0.48972653  0.27425982  0.62191696    -0.34400
C255        C  0.48106724  0.24666850  0.62423751     0.01800
C256        C  0.47416098  0.23320305  0.60036613     0.07800
C257        C  0.47895181  0.25408216  0.58394907    -0.05300
H258        H  0.48036654  0.23699599  0.64207653     0.08500
H259        H  0.47570896  0.25162845  0.56354157     0.09700
Cu260      Cu  0.50451490  0.30553678  0.65122386     0.44200
Cu261      Cu  0.49763288  0.31809451  0.58334485     0.42000
Cu262      Cu  0.52007085  0.37618201  0.62980226     0.43900
N263        N  0.51955481  0.34103521  0.67612771    -0.33900
N264        N  0.52476660  0.36684677  0.66794588    -0.28200
C265        C  0.53340545  0.38534768  0.68810195    -0.04300
C266        C  0.53386596  0.37063620  0.71031196     0.08000
C267        C  0.52491426  0.34247819  0.70187952     0.01700
H268        H  0.53915225  0.40788455  0.68661883     0.09400
H269        H  0.52165745  0.32446248  0.71336638     0.08500
N270        N  0.51552322  0.38100464  0.59106977    -0.35400
N271        N  0.50747476  0.35971721  0.57394785    -0.27500
C272        C  0.50690921  0.36983414  0.55072233    -0.02800
C273        C  0.51484302  0.39900534  0.55330670     0.05800
C274        C  0.52028218  0.40522112  0.57925980     0.03900
H275        H  0.50074090  0.35693987  0.53319545     0.09000
H276        H  0.52776004  0.42565088  0.58911828     0.07900
C277        C  0.40892984  0.97230601  0.58208610     0.87300
C278        C  0.42676272  0.96405041  0.56275556    -0.53000
C279        C  0.42150205  0.98264379  0.54232529     0.10200
C280        C  0.39669002  0.00749308  0.54248880     0.21100
C281        C  0.41917621  0.00382382  0.58961211    -0.53700
C282        C  0.41277611  0.02235868  0.56906671     0.10300
C283        C  0.37132472  0.97439839  0.56535379    -0.53200
C284        C  0.36478036  0.99284645  0.54472503     0.10900
H285        H  0.44318634  0.94526625  0.56570023     0.15400
H286        H  0.39117701  0.02277605  0.52600085     0.01100
H287        H  0.43113740  0.01064663  0.60963402     0.15700
H288        H  0.35103481  0.96306630  0.56921406     0.15500
C289        C  0.42386892  0.09901033  0.59592620    -0.27400
C290        C  0.43678510  0.11332396  0.57864904     0.06200
C291        C  0.44158923  0.09749979  0.55805602     0.25800
C292        C  0.43355168  0.06803610  0.55495632    -0.11900
C293        C  0.42070662  0.05376777  0.57231850    -0.25900
C294        C  0.41570357  0.06969211  0.59278191     0.36600
C295        C  0.44554220  0.14453037  0.58267105     0.06200
F296        F  0.45349755  0.11058688  0.54066792    -0.19700
H297        H  0.43782124  0.05628769  0.53914288     0.16000
F298        F  0.40210008  0.05720454  0.60944261    -0.23400
H299        H  0.42027611  0.11054547  0.61210361     0.17800
C300        C  0.42310849  0.16445876  0.58788486     0.25800
C301        C  0.43263064  0.19328986  0.59372998    -0.11900
C302        C  0.46424640  0.20290356  0.59385754    -0.25900
C303        C  0.48628747  0.18341375  0.58787141     0.36700
C304        C  0.47711009  0.15440995  0.58255863    -0.27600
F305        F  0.39180875  0.15613932  0.58702212    -0.19700
H306        H  0.41520574  0.20822099  0.59795292     0.16000
F307        F  0.51712814  0.19224767  0.58805201    -0.23400
H308        H  0.49502542  0.13951358  0.57897326     0.17800
C309        C  0.44949777  0.98808013  0.48251884    -0.27400
C310        C  0.48201238  0.97589049  0.49192377     0.06200
C311        C  0.49458147  0.96644876  0.51776655     0.25800
C312        C  0.47493673  0.96909367  0.53384967    -0.11900
C313        C  0.44187952  0.98061630  0.52446909    -0.25900
C314        C  0.42942732  0.99022783  0.49848836     0.36600
C315        C  0.50295001  0.97333855  0.47488943     0.06200
F316        F  0.52625499  0.95527725  0.52766922    -0.19700
H317        H  0.48609263  0.96243805  0.55389418     0.16000
F318        F  0.39763349  0.00085555  0.48811655    -0.23400
H319        H  0.43940688  0.99545555  0.46257310     0.17800
C320        C  0.51421421  0.94620992  0.46937922     0.25800
C321        C  0.53398580  0.94408471  0.45326110    -0.11900
C322        C  0.54308133  0.96895001  0.44247682    -0.25900
C323        C  0.53235042  0.99617034  0.44852910     0.36700
C324        C  0.51223922  0.99821836  0.46438342    -0.27600
F325        F  0.50528117  0.92170809  0.47900839    -0.19700
H326        H  0.54137563  0.92285340  0.44865499     0.16000
F327        F  0.54183206  0.02088433  0.43960806    -0.23400
H328        H  0.50424032  0.01933097  0.46878084     0.17800
C329        C  0.51313385  0.46750046  0.51473007    -0.27400
C330        C  0.52029516  0.45677595  0.49307781     0.06200
C331        C  0.52618073  0.42700782  0.49147481     0.25800
C332        C  0.52441270  0.40836475  0.51112279    -0.11900
C333        C  0.51695724  0.41906909  0.53275655    -0.25900
C334        C  0.51133233  0.44895310  0.53433485     0.36600
C335        C  0.52090789  0.47696171  0.47224415     0.06200
F336        F  0.53427995  0.41604829  0.47120699    -0.19700
H337        H  0.52928235  0.38557271  0.50952668     0.16000
F338        F  0.50278048  0.46028777  0.55423452    -0.23400
H339        H  0.50816011  0.49033555  0.51617538     0.17800
C340        C  0.50051256  0.47226379  0.44629157     0.25800
C341        C  0.49952899  0.49264419  0.42719388    -0.11900
C342        C  0.51856432  0.51816635  0.43364741    -0.25900
C343        C  0.53943676  0.52256935  0.45955128     0.36700
C344        C  0.54047994  0.50214686  0.47860932    -0.27600
F345        F  0.48036047  0.44865893  0.43960587    -0.19700
H346        H  0.48304891  0.48882608  0.40746147     0.16000
F347        F  0.55932961  0.54628918  0.46644854    -0.23400
H348        H  0.55653618  0.50604061  0.49847613     0.17800
C349        C  0.53959339  0.78448194  0.40338970    -0.27400
C350        C  0.54785315  0.80270703  0.38599528     0.06200
C351        C  0.54885637  0.79135364  0.36238382     0.25800
C352        C  0.54148310  0.76225661  0.35621317    -0.11900
C353        C  0.53268741  0.74381527  0.37334876    -0.25900
C354        C  0.53178215  0.75536635  0.39713397     0.36600
C355        C  0.55366212  0.83390301  0.39168540     0.06200
F356        F  0.55713934  0.80847906  0.34530362    -0.19700
H357        H  0.54288514  0.75421504  0.33796465     0.16000
F358        F  0.52220485  0.73904797  0.41402955    -0.23400
H359        H  0.53828158  0.79303664  0.42152648     0.17800
C360        C  0.53130418  0.85424032  0.37590656     0.25800
C361        C  0.53800830  0.88371011  0.37968409    -0.11900
C362        C  0.56735376  0.89360858  0.39908846    -0.25900
C363        C  0.58913682  0.87325091  0.41561101     0.36700
C364        C  0.58217843  0.84357806  0.41194622    -0.27600
F365        F  0.50307893  0.84551489  0.35662939    -0.19700
H366        H  0.52029170  0.89887211  0.36711618     0.16000
F367        F  0.61800882  0.88180505  0.43427125    -0.23400
H368        H  0.59966390  0.82810452  0.42427052     0.17800
C369        C  0.58803192  0.44441628  0.81996251    -0.27400
C370        C  0.56481828  0.42167372  0.81299421     0.06200
C371        C  0.54923733  0.41263368  0.83074815     0.25800
C372        C  0.55608155  0.42671447  0.85474705    -0.11900
C373        C  0.57869089  0.45022176  0.86161899    -0.25900
C374        C  0.59498764  0.45846903  0.84387490     0.36600
C375        C  0.55624533  0.40827508  0.78682969     0.06200
F376        F  0.52623544  0.39096409  0.82441485    -0.19700
H377        H  0.54277749  0.41927837  0.86730231     0.16000
F378        F  0.61717971  0.48076807  0.84939727    -0.23400
H379        H  0.60059488  0.45153379  0.80666718     0.17800
C380        C  0.54451199  0.42543430  0.76437954     0.25800
C381        C  0.53712443  0.41296020  0.73975000    -0.11900
C382        C  0.54135086  0.38310088  0.73685121    -0.25900
C383        C  0.55306170  0.36589274  0.75941629     0.36700
C384        C  0.56024647  0.37842401  0.78411045    -0.27600
F385        F  0.53959441  0.45426429  0.76625442    -0.19700
H386        H  0.52773266  0.42680265  0.72289775     0.16000
F387        F  0.55876330  0.33718932  0.75781510    -0.23400
H388        H  0.56963832  0.36488489  0.80120421     0.17800
C389        C  0.56067898  0.66057406  0.90319282    -0.27400
C390        C  0.55302907  0.63994028  0.88316262     0.06200
C391        C  0.53989477  0.64952289  0.85723152     0.25800
C392        C  0.53464798  0.67899812  0.85163117    -0.11900
C393        C  0.54249808  0.69974493  0.87164053    -0.25900
C394        C  0.55580045  0.69009628  0.89761783     0.36600
C395        C  0.55917732  0.60861822  0.88932833     0.06200
F396        F  0.53287916  0.63048220  0.83716825    -0.19700
H397        H  0.52425483  0.68544735  0.83148043     0.16000
F398        F  0.56499271  0.70899214  0.91778557    -0.23400
H399        H  0.57048211  0.65382903  0.92332855     0.17800
C400        C  0.58987842  0.59877448  0.90739727     0.25800
C401        C  0.59594174  0.56913589  0.91192713    -0.11900
C402        C  0.57182617  0.54878826  0.89831427    -0.25900
C403        C  0.54073137  0.55860288  0.88091679     0.36700
C404        C  0.53448206  0.58818136  0.87664523    -0.27600
F405        F  0.61470638  0.61767059  0.91975200    -0.19700
H406        H  0.62014071  0.56202671  0.92526230     0.16000
F407        F  0.51627882  0.53959382  0.86808445    -0.23400
H408        H  0.51028620  0.59512769  0.86323792     0.17800
C409        C  0.46309650  0.92212901  0.70019755    -0.27400
C410        C  0.45089050  0.90495044  0.67784267     0.06200
C411        C  0.44858340  0.87489925  0.68047669     0.25800
C412        C  0.45781895  0.86241068  0.70527253    -0.11900
C413        C  0.46886787  0.87979983  0.72768968    -0.25900
C414        C  0.47186097  0.90980797  0.72487905     0.36600
C415        C  0.44030830  0.91904170  0.65206854     0.06200
F416        F  0.43752472  0.85771621  0.65912163    -0.19700
H417        H  0.45540519  0.83928056  0.70694180     0.16000
F418        F  0.48368827  0.92729857  0.74596410    -0.23400
H419        H  0.46528097  0.94530130  0.69849040     0.17800
C420        C  0.40638574  0.91890308  0.63589240     0.25800
C421        C  0.39593797  0.93541599  0.61308642    -0.11900
C422        C  0.41921412  0.95240556  0.60588983    -0.25900
C423        C  0.45356371  0.95123943  0.62181170     0.36700
C424        C  0.46377523  0.93503057  0.64467676    -0.27600
F425        F  0.38304699  0.90385289  0.64278444    -0.19700
H426        H  0.36949103  0.93487675  0.60164227     0.16000
F427        F  0.47730956  0.96648713  0.61558097    -0.23400
H428        H  0.49007613  0.93533429  0.65694018     0.17800
C429        C  0.43139726  0.52862653  0.13182061    -0.27400
C430        C  0.44750168  0.51616543  0.15624312     0.06200
C431        C  0.45670929  0.48684198  0.15752424     0.25800
C432        C  0.44843545  0.46998690  0.13499904    -0.11900
C433        C  0.43052723  0.48183278  0.11043526    -0.25900
C434        C  0.42328113  0.51180520  0.10915381     0.36600
C435        C  0.45311043  0.53297954  0.18055197     0.06200
F436        F  0.47405295  0.47445419  0.18070501    -0.19700
H437        H  0.45682011  0.44781927  0.13728737     0.16000
F438        F  0.40774418  0.52480971  0.08593045    -0.23400
H439        H  0.42430640  0.55125497  0.13033779     0.17800
C440        C  0.47052398  0.55945886  0.18519544     0.25800
C441        C  0.47741127  0.57355754  0.20925684    -0.11900
C442        C  0.46704048  0.56144429  0.22894956    -0.25900
C443        C  0.44806353  0.53575421  0.22359953     0.36700
C444        C  0.44135498  0.52177140  0.19975793    -0.27600
F445        F  0.48215312  0.57098719  0.16698822    -0.19700
H446        H  0.49190039  0.59334970  0.21281856     0.16000
F447        F  0.43555947  0.52413762  0.24127693    -0.23400
H448        H  0.42701116  0.50187485  0.19630718     0.17800
C449        C  0.48371748  0.48947305  0.00649928    -0.27400
C450        C  0.48968289  0.46551646  0.99268680     0.06200
C451        C  0.47469007  0.43891311  0.99516138     0.25800
C452        C  0.45516594  0.43643256  0.01151907    -0.11900
C453        C  0.44966296  0.46038617  0.02553574    -0.25900
C454        C  0.46355133  0.48718049  0.02225504     0.36600
C455        C  0.51162951  0.46859847  0.97606620     0.06200
F456        F  0.47847525  0.41529794  0.98156724    -0.19700
H457        H  0.44494867  0.41551455  0.01358394     0.16000
F458        F  0.45732924  0.51145540  0.03394923    -0.23400
H459        H  0.49506850  0.51017468  0.00542532     0.17800
C460        C  0.50961442  0.49339436  0.96055517     0.25800
C461        C  0.53089194  0.49643469  0.94568648    -0.11900
C462        C  0.55386651  0.47456532  0.94521046    -0.25900
C463        C  0.55582285  0.44969149  0.96031992     0.36700
C464        C  0.53534605  0.44699059  0.97590424    -0.27600
F465        F  0.48614945  0.51425315  0.95885290    -0.19700
H466        H  0.52847374  0.51545579  0.93365395     0.16000
F467        F  0.57770891  0.42809535  0.96010655    -0.23400
H468        H  0.53824004  0.42798778  0.98796757     0.17800
C469        C  0.46842232  0.96231773  0.94261609    -0.27400
C470        C  0.47167207  0.95140370  0.96729348     0.06200
C471        C  0.47681966  0.92157531  0.97179644     0.25800
C472        C  0.47957697  0.90329061  0.95216397    -0.11900
C473        C  0.47706672  0.91421996  0.92755526    -0.25900
C474        C  0.47110148  0.94407189  0.92293266     0.36600
C475        C  0.46983876  0.97139050  0.98810691     0.06200
F476        F  0.47851684  0.90996220  0.99500667    -0.19700
H477        H  0.48341487  0.88043871  0.95629435     0.16000
F478        F  0.46897032  0.95607441  0.89981351    -0.23400
H479        H  0.46455072  0.98524215  0.93872967     0.17800
C480        C  0.49475961  0.97099120  0.01289668     0.25800
C481        C  0.49304176  0.99040020  0.03209385    -0.11900
C482        C  0.46685789  0.01091499  0.02688193    -0.25900
C483        C  0.44197966  0.01136963  0.00205111     0.36700
C484        C  0.44352349  0.99175769  0.98293218    -0.27600
F485        F  0.52150358  0.95261797  0.01829040    -0.19700
H486        H  0.51280668  0.98985079  0.05089395     0.16000
F487        F  0.41567918  0.03021951  0.99635738    -0.23400
H488        H  0.42395556  0.99235697  0.96402566     0.17800
C489        C  0.41314031  0.28062559  0.09704262    -0.27400
C490        C  0.41889619  0.29169418  0.07497435     0.06200
C491        C  0.42824778  0.27257052  0.05847760     0.25800
C492        C  0.43233314  0.24305116  0.06429411    -0.11900
C493        C  0.42750066  0.23204647  0.08678618    -0.25900
C494        C  0.41734768  0.25115564  0.10294310     0.36600
C495        C  0.41640388  0.32329277  0.06997932     0.06200
F496        F  0.43330108  0.28242281  0.03667643    -0.19700
H497        H  0.44009796  0.22893800  0.05146449     0.16000
F498        F  0.41101706  0.24143048  0.12427407    -0.23400
H499        H  0.40598617  0.29497362  0.11005845     0.17800
C500        C  0.38751722  0.33899830  0.06975181     0.25800
C501        C  0.38660873  0.36909401  0.06710059    -0.11900
C502        C  0.41442610  0.38392902  0.06470896    -0.25900
C503        C  0.44301513  0.36835508  0.06442494     0.36700
C504        C  0.44389764  0.33822966  0.06690576    -0.27600
F505        F  0.36033287  0.32525048  0.07230940    -0.19700
H506        H  0.36452330  0.38096999  0.06759657     0.16000
F507        F  0.47051970  0.38240384  0.06279666    -0.23400
H508        H  0.46656816  0.32663645  0.06739942     0.17800
C509        C  0.53455161  0.06240729  0.27986846    -0.27400
C510        C  0.53069509  0.03272435  0.28334836     0.06200
C511        C  0.51709836  0.01507820  0.26133250     0.25800
C512        C  0.50817091  0.02684717  0.23640747    -0.11900
C513        C  0.51238036  0.05646443  0.23279958    -0.25900
C514        C  0.52540951  0.07426841  0.25486222     0.36600
C515        C  0.54158857  0.01995642  0.30979704     0.06200
F516        F  0.51344295  0.98622443  0.26388277    -0.19700
H517        H  0.49791329  0.01262871  0.21987170     0.16000
F518        F  0.53052559  0.10287420  0.25238194    -0.23400
H519        H  0.54481272  0.07641457  0.29658479     0.17800
C520        C  0.57452844  0.02406809  0.32717111     0.25800
C521        C  0.58538400  0.00996018  0.35122124    -0.11900
C522        C  0.56363841  0.99140727  0.35860698    -0.25900
C523        C  0.53006792  0.98853802  0.34144422     0.36700
C524        C  0.51939681  0.00246374  0.31737359    -0.27600
F525        F  0.59670199  0.04086124  0.32046393    -0.19700
H526        H  0.61113375  0.01375658  0.36368508     0.16000
F527        F  0.50763669  0.97158231  0.34770154    -0.23400
H528        H  0.49368503  0.99936966  0.30445464     0.17800
C529        C  0.21443882  0.42709373  0.97253685    -0.27400
C530        C  0.23368517  0.45253299  0.97736755     0.06200
C531        C  0.21860040  0.47828047  0.96530174     0.25800
C532        C  0.18502605  0.47844784  0.94856351    -0.11900
C533        C  0.16578103  0.45292713  0.94329138    -0.25900
C534        C  0.18090463  0.42715550  0.95554971     0.36600
C535        C  0.26950923  0.45209213  0.99478144     0.06200
F536        F  0.23623480  0.50337601  0.96999174    -0.19700
H537        H  0.17402942  0.49866562  0.93967939     0.16000
F538        F  0.16400748  0.40172937  0.95019805    -0.23400
H539        H  0.22572479  0.40697396  0.98147038     0.17800
C540        C  0.27796270  0.44410939  0.02102318     0.25800
C541        C  0.31170894  0.44444353  0.03744432    -0.11900
C542        C  0.33768206  0.45216302  0.02789064    -0.25900
C543        C  0.32935796  0.45964895  0.00156966     0.36700
C544        C  0.29549624  0.45990503  0.98524504    -0.27600
F545        F  0.25348192  0.43667112  0.03090096    -0.19700
H546        H  0.31764834  0.43849965  0.05766207     0.16000
F547        F  0.35385039  0.46758108  0.99188008    -0.23400
H548        H  0.28950376  0.46608157  0.96507377     0.17800
C549        C  0.09274619  0.33884676  0.88040187    -0.27400
C550        C  0.07594412  0.32453294  0.89509644     0.06200
C551        C  0.06601325  0.34038998  0.91341257     0.25800
C552        C  0.07177412  0.37026407  0.91616804    -0.11900
C553        C  0.08741007  0.38471341  0.90068771    -0.25900
C554        C  0.09856729  0.36854239  0.88317253     0.36600
C555        C  0.06878339  0.29318139  0.89085062     0.06200
F556        F  0.04944088  0.32724350  0.92777537    -0.19700
H557        H  0.06281205  0.38229409  0.92965285     0.16000
F558        F  0.11527335  0.38140439  0.86875171    -0.23400
H559        H  0.10135293  0.32694337  0.86666263     0.17800
C560        C  0.05240687  0.28236889  0.86569415     0.25800
C561        C  0.04736153  0.25268439  0.86152350    -0.11900
C562        C  0.05861529  0.23298787  0.88226634    -0.25900
C563        C  0.07466974  0.24393406  0.90754919     0.36700
C564        C  0.07952462  0.27373233  0.91170618    -0.27600
F565        F  0.04092855  0.30057195  0.84511431    -0.19700
H566        H  0.03439468  0.24524541  0.84193114     0.16000
F567        F  0.08687894  0.22599032  0.92819751    -0.23400
H568        H  0.09258650  0.28159500  0.93119848     0.17800
C569        C  0.72360279  0.50131732  0.94716620    -0.27400
C570        C  0.73305812  0.49576085  0.97395083     0.06200
C571        C  0.70742390  0.49000814  0.98463822     0.25800
C572        C  0.67338558  0.48881753  0.96861160    -0.11900
C573        C  0.66434490  0.49294999  0.94168559    -0.25900
C574        C  0.68974181  0.49984740  0.93118933     0.36600
C575        C  0.76960746  0.49509597  0.99028471     0.06200
F576        F  0.71538459  0.48402021  0.01032227    -0.19700
H577        H  0.65424861  0.48334285  0.97705785     0.16000
F578        F  0.68178791  0.50506213  0.90536579    -0.23400
H579        H  0.74259428  0.50652833  0.93850290     0.17800
C580        C  0.79328200  0.47926065  0.98232156     0.25800
C581        C  0.82731140  0.47786536  0.99817905    -0.11900
C582        C  0.83834708  0.49202055  0.02226541    -0.25900
C583        C  0.81503746  0.50819191  0.03012229     0.36700
C584        C  0.78106972  0.50984477  0.01420595    -0.27600
F585        F  0.78323600  0.46391718  0.95980983    -0.19700
H586        H  0.84480458  0.46477487  0.99212867     0.16000
F587        F  0.82505926  0.52188392  0.05348248    -0.23400
H588        H  0.76362113  0.52247404  0.02069064     0.17800
C589        C  0.95667550  0.47832274  0.97971880    -0.27400
C590        C  0.99090337  0.47002998  0.98991060     0.06200
C591        C  0.00498584  0.46472118  0.01675611     0.25800
C592        C  0.98529238  0.46748874  0.03284610    -0.11900
C593        C  0.95097216  0.47543467  0.02269562    -0.25900
C594        C  0.93686202  0.48098374  0.99587448     0.36600
C595        C  0.01173784  0.46657855  0.97261453     0.06200
F596        F  0.03762922  0.45604136  0.02741937    -0.19700
H597        H  0.99711611  0.46348292  0.05345049     0.16000
F598        F  0.90372161  0.48803984  0.98506302    -0.23400
H599        H  0.94522541  0.48278836  0.95916814     0.17800
C600        C  0.99969881  0.45068100  0.94926925     0.25800
C601        C  0.01966875  0.44729147  0.93339165    -0.11900
C602        C  0.05203206  0.45940447  0.94054181    -0.25900
C603        C  0.06428535  0.47513949  0.96378630     0.36700
C604        C  0.04423947  0.47878974  0.97960400    -0.27600
F605        F  0.96894521  0.43786084  0.94206249    -0.19700
H606        H  0.00989454  0.43514459  0.91544272     0.16000
F607        F  0.09526978  0.48754130  0.97082913    -0.23400
H608        H  0.05398750  0.49148430  0.99722287     0.17800
C609        C  0.03742775  0.95598434  0.02850671    -0.27400
C610        C  0.01717034  0.95114715  0.00260810     0.06200
C611        C  0.99633702  0.92662078  0.99657267     0.25800
C612        C  0.99557358  0.90756717  0.01623060    -0.11900
C613        C  0.01552430  0.91257073  0.04226390    -0.25900
C614        C  0.03678136  0.93694088  0.04815469     0.36600
C615        C  0.01836533  0.97157219  0.98205308     0.06200
F616        F  0.97604238  0.92150221  0.97177655    -0.19700
H617        H  0.97880750  0.88916602  0.01107999     0.16000
F618        F  0.05775453  0.94206665  0.07271781    -0.23400
H619        H  0.05420865  0.97440261  0.03348306     0.17800
C620        C  0.01392006  0.00142381  0.98466684     0.25800
C621        C  0.01608431  0.02058143  0.96553136    -0.11900
C622        C  0.02258957  0.01040014  0.94337187    -0.25900
C623        C  0.02701727  0.98046538  0.94078591     0.36700
C624        C  0.02486781  0.96133346  0.95995529    -0.27600
F625        F  0.00680219  0.01201473  0.00548524    -0.19700
H626        H  0.01215884  0.04340834  0.96792018     0.16000
F627        F  0.03460686  0.96965420  0.92026240    -0.23400
H628        H  0.02896325  0.93847348  0.95779173     0.17800
C629        C  0.96608509  0.58708352  0.09069681    -0.27400
C630        C  0.93961822  0.60745874  0.08345660     0.06200
C631        C  0.90686558  0.59791956  0.06882312     0.25800
C632        C  0.90090376  0.56870567  0.06201593    -0.11900
C633        C  0.92719202  0.54842740  0.07012509    -0.25900
C634        C  0.95991675  0.55783660  0.08439365     0.36600
C635        C  0.94644780  0.63844609  0.09111163     0.06200
F636        F  0.88029015  0.61653358  0.06211457    -0.19700
H637        H  0.87543466  0.56169010  0.05138244     0.16000
F638        F  0.98589161  0.53864774  0.09233647    -0.23400
H639        H  0.99165024  0.59379245  0.10136392     0.17800
C640        C  0.96668479  0.64636631  0.11651567     0.25800
C641        C  0.97370420  0.67551795  0.12314256    -0.11900
C642        C  0.96085942  0.69743495  0.10466551    -0.25900
C643        C  0.93994425  0.68955190  0.07947534     0.36700
C644        C  0.93307396  0.66044538  0.07282583    -0.27600
F645        F  0.97940185  0.62598231  0.13509547    -0.19700
H646        H  0.98975888  0.68088840  0.14267280     0.16000
F647        F  0.92551886  0.70993330  0.06128584    -0.23400
H648        H  0.91761115  0.65510455  0.05311607     0.17800
C649        C  0.21231596  0.01714610  0.45569449    -0.27400
C650        C  0.22399884  0.00345692  0.48008257     0.06200
C651        C  0.20042649  0.98857013  0.48869875     0.25800
C652        C  0.16635990  0.98691145  0.47297640    -0.11900
C653        C  0.15518377  0.99981235  0.44837573    -0.25900
C654        C  0.17833458  0.01519657  0.43992203     0.36600
C655        C  0.26072465  0.00383284  0.49604130     0.06200
F656        F  0.21058253  0.97436432  0.51175963    -0.19700
H657        H  0.14892597  0.97462601  0.47961080     0.16000
F658        F  0.16809748  0.02797566  0.41618644    -0.23400
H659        H  0.22960211  0.02915946  0.44871438     0.17800
C660        C  0.28587161  0.99726239  0.48497530     0.25800
C661        C  0.31995720  0.99510566  0.50068031    -0.11900
C662        C  0.32959375  0.99917831  0.52764105    -0.25900
C663        C  0.30480214  0.00710680  0.53852816     0.36700
C664        C  0.27085292  0.00952057  0.52287129    -0.27600
F665        F  0.27737258  0.99127853  0.45923051    -0.19700
H666        H  0.33857976  0.98880256  0.49194239     0.16000
F667        F  0.31341367  0.01225758  0.56443354    -0.23400
H668        H  0.25232096  0.01543593  0.53183816     0.17800
C669        C  0.08409929  0.94878928  0.32710372    -0.27400
C670        C  0.05852971  0.92790806  0.31937259     0.06200
C671        C  0.03943604  0.92246894  0.33561339     0.25800
C672        C  0.04541145  0.93795597  0.35883158    -0.11900
C673        C  0.07066295  0.95944324  0.36655997    -0.25900
C674        C  0.09011269  0.96435186  0.35026356     0.36600
C675        C  0.05111558  0.91269353  0.29396966     0.06200
F676        F  0.01392572  0.90296029  0.32851461    -0.19700
H677        H  0.02940495  0.93309769  0.37001159     0.16000
F678        F  0.11476318  0.98466518  0.35654040    -0.23400
H679        H  0.09938388  0.95321116  0.31504370     0.17800
C680        C  0.04540719  0.92845223  0.27093556     0.25800
C681        C  0.03811801  0.91419692  0.24706286    -0.11900
C682        C  0.03654395  0.88379380  0.24538888    -0.25900
C683        C  0.04232032  0.86800214  0.26857459     0.36700
C684        C  0.04937555  0.88237696  0.29250224    -0.27600
F685        F  0.04599753  0.95778529  0.27137848    -0.19700
H686        H  0.03333446  0.92728226  0.22983286     0.16000
F687        F  0.04201882  0.83871120  0.26844859    -0.23400
H688        H  0.05400130  0.86975010  0.31003139     0.17800
C689        C  0.05403050  0.16190255  0.36322728    -0.27400
C690        C  0.05759882  0.15188551  0.38821735     0.06200
C691        C  0.05662018  0.17190925  0.40732463     0.25800
C692        C  0.05095774  0.20129112  0.40116456    -0.09900
C693        C  0.04652617  0.21147091  0.37589106    -0.25900
C694        C  0.04886566  0.19125532  0.35708657     0.36600
C695        C  0.06164393  0.12045800  0.39382509     0.06200
F696        F  0.05995133  0.16293347  0.43171124    -0.19700
H697        H  0.04947895  0.21588423  0.41625273     0.16000
F698        F  0.04657751  0.19947465  0.33275502    -0.23400
H699        H  0.05538386  0.14684322  0.34835704     0.17800
C700        C  0.03772380  0.10082689  0.37853330     0.25800
C701        C  0.04248033  0.07111336  0.38272496    -0.11900
C702        C  0.07116659  0.06028081  0.40221630    -0.25900
C703        C  0.09476823  0.07994479  0.41795632     0.36700
C704        C  0.08993632  0.10978625  0.41377620    -0.27600
F705        F  0.00959127  0.11044073  0.35960532    -0.19700
H706        H  0.02363054  0.05648261  0.37063756     0.16000
F707        F  0.12329072  0.07039796  0.43648675    -0.23400
H708        H  0.10879813  0.12456501  0.42561519     0.17800
C709        C  0.90810527  0.44262576  0.14397542    -0.27400
C710        C  0.93300095  0.42113767  0.15221247     0.06200
C711        C  0.95044583  0.41257730  0.13544306     0.25800
C712        C  0.94418375  0.42634849  0.11143293    -0.11900
C713        C  0.92038029  0.44907414  0.10362032    -0.25900
C714        C  0.90188096  0.45646341  0.12013990     0.36600
C715        C  0.94194692  0.40921017  0.17891129     0.06200
F716        F  0.97491561  0.39198566  0.14286633    -0.19700
H717        H  0.95912106  0.41956255  0.09980234     0.16000
F718        F  0.87853426  0.47803491  0.11368062    -0.23400
H719        H  0.89393338  0.44924506  0.15638690     0.17800
C720        C  0.94941664  0.42790585  0.20042523     0.25800
C721        C  0.95809210  0.41683622  0.22558421    -0.11900
C722        C  0.95945408  0.38685292  0.23004371    -0.25900
C723        C  0.95172732  0.36809766  0.20838871     0.36700
C724        C  0.94322587  0.37926165  0.18314892    -0.27600
F725        F  0.94922036  0.45699522  0.19719687    -0.19700
H726        H  0.96426127  0.43199177  0.24159904     0.16000
F727        F  0.95148700  0.33902676  0.21131136    -0.23400
H728        H  0.93713367  0.36447004  0.16681610     0.17800
C729        C  0.77176813  0.98554430  0.50415687    -0.27400
C730        C  0.75745002  0.95864268  0.49498600     0.06200
C731        C  0.77771966  0.93367243  0.50176941     0.25800
C732        C  0.81162458  0.93563542  0.51789690    -0.11900
C733        C  0.82587775  0.96252823  0.52745883    -0.25900
C734        C  0.80564143  0.98759112  0.52001603     0.36600
C735        C  0.72186713  0.95707102  0.47732771     0.06200
F736        F  0.76443313  0.90734278  0.49326484    -0.19700
H737        H  0.82649722  0.91604643  0.52345802     0.16000
F738        F  0.81875788  0.01421616  0.52758670    -0.23400
H739        H  0.75677796  0.00506118  0.49865929     0.17800
C740        C  0.69484509  0.96477151  0.48588911     0.25800
C741        C  0.66147885  0.96424894  0.46856294    -0.11900
C742        C  0.65473704  0.95690816  0.44234142    -0.25900
C743        C  0.68177891  0.94912968  0.43386795     0.36700
C744        C  0.71494245  0.94894274  0.45129194    -0.27600
F745        F  0.70077409  0.97289087  0.51093911    -0.19700
H746        H  0.64100227  0.97048939  0.47538828     0.16000
F747        F  0.67608058  0.94170005  0.40868574    -0.23400
H748        H  0.73542745  0.94310659  0.44431197     0.17800
C749        C  0.97282206  0.06191284  0.69252409    -0.27400
C750        C  0.94946659  0.03924745  0.68562731     0.06200
C751        C  0.93790641  0.02708466  0.70462247     0.25800
C752        C  0.94991184  0.03726655  0.73019220    -0.11900
C753        C  0.97354268  0.05984926  0.73731116    -0.25900
C754        C  0.98463038  0.07234878  0.71807124     0.36600
C755        C  0.93843349  0.02734265  0.65895877     0.06200
F756        F  0.91588231  0.00467197  0.69863024    -0.19700
H757        H  0.94070537  0.02734076  0.74444732     0.16000
F758        F  0.00785589  0.09381218  0.72401478    -0.23400
H759        H  0.98211001  0.07138120  0.67808999     0.17800
C760        C  0.90421312  0.02727659  0.64359288     0.25800
C761        C  0.89368656  0.01379505  0.61922917    -0.11900
C762        C  0.91716191  0.99973352  0.60972095    -0.25900
C763        C  0.95169740  0.00060612  0.62520155     0.36700
C764        C  0.96211077  0.01448448  0.64935621    -0.27600
F765        F  0.88080347  0.03989378  0.65235263    -0.19700
H766        H  0.86712145  0.01374292  0.60884017     0.16000
F767        F  0.97538637  0.98692310  0.61745762    -0.23400
H768        H  0.98859579  0.01419569  0.66106662     0.17800
C769        C  0.95132804  0.99985181  0.49344324    -0.27400
C770        C  0.97745333  0.98016629  0.49475571     0.06200
C771        C  0.98260987  0.95644064  0.51172730     0.25800
C772        C  0.96216718  0.95267835  0.52718149    -0.11900
C773        C  0.93656754  0.97265734  0.52622168    -0.25900
C774        C  0.93128666  0.99634441  0.50925649     0.36600
C775        C  0.99897670  0.98423918  0.47822678     0.06200
F776        F  0.00733038  0.93683829  0.51324568    -0.19700
H777        H  0.96703421  0.93464431  0.54054603     0.16000
F778        F  0.90701072  0.01622485  0.50824664    -0.23400
H779        H  0.94693887  0.01827559  0.48053268     0.17800
C780        C  0.98451566  0.98447709  0.45101074     0.25800
C781        C  0.00499297  0.98682028  0.43548293    -0.11900
C782        C  0.04029939  0.98937126  0.44669067    -0.25900
C783        C  0.05470036  0.99016804  0.47394069     0.36700
C784        C  0.03419621  0.98731229  0.48953011    -0.27600
F785        F  0.95065148  0.98145789  0.43942089    -0.19700
H786        H  0.99318989  0.98652879  0.41454515     0.16000
F787        F  0.08862098  0.99252431  0.48550075    -0.23400
H788        H  0.04581648  0.98737146  0.51049151     0.17800
C789        C  0.99560293  0.52277921  0.49036728    -0.27400
C790        C  0.99276290  0.49307192  0.49425633     0.06200
C791        C  0.99025671  0.48359653  0.51795987     0.25800
C792        C  0.99127968  0.50346410  0.53755247    -0.11900
C793        C  0.99491560  0.53322194  0.53402671    -0.25900
C794        C  0.99678817  0.54271990  0.51001068     0.36600
C795        C  0.99420241  0.47197541  0.47413168     0.06200
F796        F  0.98657406  0.45508613  0.52209904    -0.19700
H797        H  0.98913128  0.49541133  0.55552724     0.16000
F798        F  0.00122626  0.57103343  0.50574461    -0.23400
H799        H  0.99798046  0.53048044  0.47233550     0.17800
C800        C  0.97213332  0.47410050  0.44836701     0.25800
C801        C  0.97442671  0.45429782  0.42956835    -0.11900
C802        C  0.99874598  0.43202513  0.43606885    -0.25900
C803        C  0.02091477  0.43007700  0.46189521     0.36700
C804        C  0.01851377  0.44981999  0.48065555    -0.27600
F805        F  0.94793320  0.49495375  0.44150421    -0.19700
H806        H  0.95682616  0.45622760  0.40995007     0.16000
F807        F  0.04576858  0.40983176  0.46893915    -0.23400
H808        H  0.03617282  0.44815215  0.50029829     0.17800
C809        C  0.91861752  0.85574278  0.60020879    -0.27400
C810        C  0.93211962  0.84052398  0.58370170     0.06200
C811        C  0.93452833  0.85457413  0.56152760     0.25800
C812        C  0.92493638  0.88372353  0.55676269    -0.11900
C813        C  0.91268735  0.89929951  0.57394085    -0.25900
C814        C  0.90868786  0.88459734  0.59534277     0.36600
C815        C  0.94291076  0.80993801  0.58976507     0.06200
F816        F  0.94729446  0.84045405  0.54501977    -0.19700
H817        H  0.92814073  0.89430460  0.54010395     0.16000
F818        F  0.89467112  0.89791192  0.61148104    -0.23400
H819        H  0.91548440  0.84510649  0.61691215     0.17800
C820        C  0.96540128  0.80215984  0.61443526     0.25800
C821        C  0.97364597  0.77308172  0.62062086    -0.11900
C822        C  0.95983475  0.75115304  0.60232981    -0.25900
C823        C  0.93737489  0.75901743  0.57760677     0.36700
C824        C  0.92918687  0.78809405  0.57145007    -0.27600
F825        F  0.97976641  0.82275674  0.63246223    -0.19700
H826        H  0.99122306  0.76776729  0.63965137     0.16000
F827        F  0.92216575  0.73861608  0.55965868    -0.23400
H828        H  0.91129873  0.79351699  0.55253362     0.17800
C829        C  0.07125799  0.52694488  0.77168559    -0.27400
C830        C  0.05722854  0.53696577  0.79011364     0.06200
C831        C  0.03746549  0.56227014  0.78484372     0.25800
C832        C  0.03075217  0.57650593  0.76094962    -0.11900
C833        C  0.04366521  0.56574786  0.74198986    -0.25900
C834        C  0.06479371  0.54114606  0.74797864     0.36600
C835        C  0.06212921  0.51975665  0.81398097     0.06200
F836        F  0.02338736  0.57239859  0.80224702    -0.19700
H837        H  0.01448119  0.59537973  0.75694992     0.16000
F838        F  0.07961334  0.53080989  0.73112015    -0.23400
H839        H  0.08708425  0.50779638  0.77561550     0.17800
C840        C  0.05226867  0.49070562  0.81187138     0.25800
C841        C  0.05900961  0.47352662  0.83400088    -0.11900
C842        C  0.07642510  0.48465387  0.85901333    -0.25900
C843        C  0.08438321  0.51444381  0.86107858     0.36700
C844        C  0.07752946  0.53167326  0.83877220    -0.27600
F845        F  0.03563092  0.47893248  0.78824655    -0.19700
H846        H  0.04970464  0.45175855  0.83096502     0.16000
F847        F  0.09930818  0.52686714  0.88468993    -0.23400
H848        H  0.08491108  0.55417922  0.84081862     0.17800
loop_ 
_geom_bond_atom_site_label_1 
_geom_bond_atom_site_label_2 
_geom_bond_distance 
_geom_bond_site_symmetry_2 
_ccdc_geom_bond_type 
N1            N2   1.323       .  A
N1            C5   1.343       .  A
N1           Cu9   2.074       .  S
N2            C3   1.350       .  A
N2           Cu8   2.100   1_655  S
C3            C4   1.392       .  A
C3            H6   1.081       .  S
C4            C5   1.384       .  A
C4          C822   1.489       .  S
C5            H7   1.082       .  S
Cu8          N11   2.099       .  S
Cu9          N19   2.073       .  S
Cu10         N12   2.070       .  S
Cu10         N18   2.070       .  S
N11          N12   1.323       .  A
N11          C15   1.351       .  A
N12          C13   1.342       .  A
C13          C14   1.385       .  A
C13          H16   1.081       .  S
C14          C15   1.392       .  A
C14         C833   1.489       .  S
C15          H17   1.082       .  S
N18          N19   1.319   1_455  A
N18          C22   1.344       .  A
N19          C20   1.346       .  A
C20          C21   1.390       .  A
C20          H23   1.081       .  S
C21          C22   1.389   1_655  A
C21         C793   1.489       .  S
C22          H24   1.081       .  S
C25          C26   1.532       .  S
C25          C31   1.542       .  S
C25          C29   1.536       .  S
C25         C762   1.533       .  S
C26          H33   1.086       .  S
C26          C27   1.365       .  D
C27          C28   1.547       .  S
C27         C813   1.495       .  S
C28          C32   1.550       .  S
C28          C30   1.546       .  S
C28          H34   1.110       .  S
C29          H35   1.086   1_565  S
C29          C30   1.365       .  D
C30         C773   1.482       .  S
C31          H36   1.076       .  S
C31          C32   1.368       .  D
C32         C733   1.494       .  S
N37          N38   1.321       .  A
N37          C41   1.346       .  A
N37         Cu45   2.083       .  S
N38          C39   1.344       .  A
N38         Cu44   2.080       .  S
C39          C40   1.392       .  A
C39          H42   1.079       .  S
C40          C41   1.392       .  A
C40         C693   1.498       .  S
C41          H43   1.081       .  S
Cu44         N47   2.079   1_455  S
Cu45         N55   2.083       .  S
Cu46         N48   2.073       .  S
Cu46         N54   2.073       .  S
N47          N48   1.320       .  A
N47          C51   1.346       .  A
N48          C49   1.343       .  A
C49          C50   1.389       .  A
C49          H52   1.081       .  S
C50          C51   1.391       .  A
C50         C722   1.492       .  S
C51          H53   1.081       .  S
N54          N55   1.322   1_655  A
N54          C58   1.345       .  A
N55          C56   1.346       .  A
C56          C57   1.389       .  A
C56          H59   1.081       .  S
C57          C58   1.386   1_455  A
C57         C802   1.486   1_455  S
C58          H60   1.082       .  S
C61          C62   1.545       .  S
C61          C67   1.538       .  S
C61          C65   1.538   1_565  S
C61         C673   1.540       .  S
C62          H69   1.079       .  S
C62          C63   1.368       .  D
C63          C64   1.545   1_565  S
C63         C782   1.493       .  S
C64          C68   1.542   1_545  S
C64          C66   1.542       .  S
C64          H70   1.110       .  S
C65          H71   1.086       .  S
C65          C66   1.368       .  D
C66         C702   1.488       .  S
C67          H72   1.086       .  S
C67          C68   1.365       .  D
C68         C653   1.483       .  S
N73          N74   1.324       .  A
N73          C77   1.344       .  A
N73         Cu81   2.077       .  S
N74          C75   1.350       .  A
N74         Cu80   2.104   1_655  S
C75          C76   1.391       .  A
C75          H78   1.082       .  S
C76          C77   1.385       .  A
C76         C642   1.489       .  S
C77          H79   1.081       .  S
Cu80         N83   2.103       .  S
Cu81         N91   2.076   1_655  S
Cu82         N84   2.067       .  S
Cu82         N90   2.066       .  S
N83          N84   1.321       .  A
N83          C87   1.351       .  A
N84          C85   1.342       .  A
C85          C86   1.387       .  A
C85          H88   1.080       .  S
C86          C87   1.397       .  A
C86         C682   1.498       .  S
C87          H89   1.081       .  S
N90          N91   1.319       .  A
N90          C94   1.343       .  A
N91          C92   1.346       .  A
C92          C93   1.389       .  A
C92          H95   1.082   1_455  S
C93          C94   1.387       .  A
C93         C613   1.486       .  S
C94          H96   1.081       .  S
C97          C98   1.544       .  S
C97         C103   1.536       .  S
C97         C101   1.535       .  S
C97         C713   1.533       .  S
C98         H105   1.080       .  S
C98          C99   1.373       .  D
C99         C100   1.549       .  S
C99         C593   1.496       .  S
C100        C104   1.543       .  S
C100        C102   1.540       .  S
C100        H106   1.110       .  S
C101        H107   1.087       .  S
C101        C102   1.361       .  D
C102        C633   1.480       .  S
C103        H108   1.086       .  S
C103        C104   1.363       .  D
C104        C582   1.482       .  S
N109        N110   1.321       .  A
N109        C113   1.347       .  A
N109       Cu117   2.082       .  S
N110        C111   1.343       .  A
N110       Cu116   2.074       .  S
C111        C112   1.388       .  A
C111        H114   1.081       .  S
C112        C113   1.390       .  A
C112        C562   1.490       .  S
C113        H115   1.081       .  S
Cu116       N119   2.073       .  S
Cu117       N127   2.081       .  S
Cu118       N120   2.070       .  S
Cu118       N126   2.070       .  S
N119        N120   1.320       .  A
N119        C123   1.346       .  A
N120        C121   1.343   1_455  A
C121        C122   1.386       .  A
C121        H124   1.082       .  S
C122        C123   1.388   1_655  A
C122        C753   1.484       .  S
C123        H125   1.081       .  S
N126        N127   1.322       .  A
N126        C130   1.344       .  A
N127        C128   1.346       .  A
C128        C129   1.388       .  A
C128        H131   1.082       .  S
C129        C130   1.386       .  A
C129        C622   1.484       .  S
C130        H132   1.081       .  S
C133        C134   1.544       .  S
C133        C139   1.540       .  S
C133        C137   1.533       .  S
C133        C842   1.537       .  S
C134        H141   1.079       .  S
C134        C135   1.365       .  D
C135        C136   1.540       .  S
C135        C553   1.487       .  S
C136        C140   1.548       .  S
C136        C138   1.542       .  S
C136        H142   1.110       .  S
C137        H143   1.087       .  S
C137        C138   1.363       .  D
C138        C602   1.479       .  S
C139        H144   1.086       .  S
C139        C140   1.371       .  D
C140        C533   1.495       .  S
N145        N146   1.322       .  A
N145        C149   1.345       .  A
N145       Cu153   2.075       .  S
N146        C147   1.345       .  A
N146       Cu152   2.082       .  S
C147        C148   1.388       .  A
C147        H150   1.082       .  S
C148        C149   1.386       .  A
C148        C493   1.486       .  S
C149        H151   1.082       .  S
Cu152       N155   2.081       .  S
Cu153       N163   2.074       .  S
Cu154       N156   2.070       .  S
Cu154       N162   2.069       .  S
N155        N156   1.321       .  A
N155        C159   1.347       .  A
N156        C157   1.342       .  A
C157        C158   1.385       .  A
C157        H160   1.082       .  S
C158        C159   1.389       .  A
C158        C513   1.485       .  S
C159        H161   1.081       .  S
N162        N163   1.321       .  A
N162        C166   1.344       .  A
N163        C164   1.345       .  A
C164        C165   1.387       .  A
C164        H167   1.082       .  S
C165        C166   1.386       .  A
C165        C482   1.482       .  S
C166        H168   1.081       .  S
C169        C170   1.545       .  S
C169        C175   1.539       .  S
C169        C173   1.534       .  S
C169        C433   1.536       .  S
C170        H177   1.082       .  S
C170        C171   1.363       .  D
C171        C172   1.537       .  S
C171        C502   1.475       .  S
C172        C176   1.543       .  S
C172        C174   1.547       .  S
C172        H178   1.110       .  S
C173        H179   1.085       .  S
C173        C174   1.370       .  D
C174        C453   1.498       .  S
C175        H180   1.086       .  S
C175        C176   1.366       .  D
C176        C542   1.486       .  S
N181        N182   1.322       .  A
N181        C185   1.343       .  A
N181       Cu189   2.070       .  S
N182        C183   1.346       .  A
N182       Cu188   2.089       .  S
C183        C184   1.392       .  A
C183        H186   1.082       .  S
C184        C185   1.387       .  A
C184        C393   1.492       .  S
C185        H187   1.080       .  S
Cu188       N191   2.089       .  S
Cu189       N199   2.069       .  S
Cu190       N192   2.065       .  S
Cu190       N198   2.065       .  S
N191        N192   1.322       .  A
N191        C195   1.349       .  A
N192        C193   1.341       .  A
C193        C194   1.382       .  A
C193        H196   1.082       .  S
C194        C195   1.389       .  A
C194        C413   1.482       .  S
C195        H197   1.082       .  S
N198        N199   1.319       .  A
N198        C202   1.344       .  A
N199        C200   1.344       .  A
C200        C201   1.389       .  A
C200        H203   1.082       .  S
C201        C202   1.389       .  A
C201        C473   1.488       .  S
C202        H204   1.080       .  S
C205        C206   1.546       .  S
C205        C211   1.535       .  S
C205        C209   1.536       .  S
C205        C373   1.535       .  S
C206        H213   1.082       .  S
C206        C207   1.368       .  D
C207        C208   1.543       .  S
C207        C462   1.485       .  S
C208        C212   1.546       .  S
C208        C210   1.541       .  S
C208        H214   1.111       .  S
C209        H215   1.086       .  S
C209        C210   1.364       .  D
C210        C402   1.485       .  S
C211        H216   1.086       .  S
C211        C212   1.366       .  D
C212        C573   1.489       .  S
N217        N218   1.323       .  A
N217        C221   1.344       .  A
N217       Cu225   2.074       .  S
N218        C219   1.347       .  A
N218       Cu224   2.098       .  S
C219        C220   1.392       .  A
C219        H222   1.081       .  S
C220        C221   1.386       .  A
C220        C353   1.492       .  S
C221        H223   1.080       .  S
Cu224       N227   2.096       .  S
Cu225       N235   2.072       .  S
Cu226       N228   2.059       .  S
Cu226       N234   2.059       .  S
N227        N228   1.322       .  A
N227        C231   1.352       .  A
N228        C229   1.339       .  A
C229        C230   1.382       .  A
C229        H232   1.081       .  S
C230        C231   1.392       .  A
C230        C442   1.486       .  S
C231        H233   1.082       .  S
N234        N235   1.319       .  A
N234        C238   1.343       .  A
N235        C236   1.345       .  A
C236        C237   1.388       .  A
C236        H239   1.081       .  S
C237        C238   1.384       .  A
C237        C342   1.481       .  S
C238        H240   1.082       .  S
C241        C242   1.534       .  S
C241        C247   1.543       .  S
C241        C245   1.535       .  S
C241        C522   1.533       .  S
C242        H249   1.086       .  S
C242        C243   1.366       .  D
C243        C244   1.544       .  S
C243        C362   1.489       .  S
C244        C248   1.543       .  S
C244        C246   1.544       .  S
C244        H250   1.109       .  S
C245        H251   1.086       .  S
C245        C246   1.368       .  D
C246        C322   1.491       .  S
C247        H252   1.085       .  S
C247        C248   1.367       .  D
C248        C742   1.486       .  S
N253        N254   1.324       .  A
N253        C257   1.346       .  A
N253       Cu261   2.075       .  S
N254        C255   1.347       .  A
N254       Cu260   2.090       .  S
C255        C256   1.383       .  A
C255        H258   1.082       .  S
C256        C257   1.380       .  A
C256        C302   1.473       .  S
C257        H259   1.082       .  S
Cu260       N263   2.090       .  S
Cu261       N271   2.074       .  S
Cu262       N264   2.071       .  S
Cu262       N270   2.071       .  S
N263        N264   1.321       .  A
N263        C267   1.349       .  A
N264        C265   1.343       .  A
C265        C266   1.387       .  A
C265        H268   1.081       .  S
C266        C267   1.391       .  A
C266        C382   1.490       .  S
C267        H269   1.081       .  S
N270        N271   1.321       .  A
N270        C274   1.343       .  A
N271        C272   1.346       .  A
C272        C273   1.387       .  A
C272        H275   1.082       .  S
C273        C274   1.387       .  A
C273        C333   1.484       .  S
C274        H276   1.081       .  S
C277        C278   1.531       .  S
C277        C283   1.540       .  S
C277        C281   1.538   1_565  S
C277        C422   1.533       .  S
C278        H285   1.085       .  S
C278        C279   1.368       .  D
C279        C280   1.550   1_565  S
C279        C313   1.499       .  S
C280        C284   1.546   1_545  S
C280        C282   1.542       .  S
C280        H286   1.108       .  S
C281        H287   1.086       .  S
C281        C282   1.367       .  D
C282        C293   1.489       .  S
C283        H288   1.082       .  S
C283        C284   1.367       .  D
C284        C662   1.489       .  S
C289        C290   1.404       .  A
C289        C294   1.397       .  A
C289        H299   1.083       .  S
C290        C291   1.409       .  A
C290        C295   1.489       .  S
C291        C292   1.402       .  A
C291        F296   1.357       .  S
C292        C293   1.405       .  A
C292        H297   1.083       .  S
C293        C294   1.409       .  A
C294        F298   1.357       .  S
C295        C300   1.410       .  A
C295        C304   1.407       .  A
C300        C301   1.400       .  A
C300        F305   1.357       .  S
C301        C302   1.401       .  A
C301        H306   1.083       .  S
C302        C303   1.403       .  A
C303        C304   1.401       .  A
C303        F307   1.357       .  S
C304        H308   1.083       .  S
C309        C310   1.405       .  A
C309        C314   1.404       .  A
C309        H319   1.083       .  S
C310        C311   1.401       .  A
C310        C315   1.482       .  S
C311        C312   1.396       .  A
C311        F316   1.358       .  S
C312        C313   1.412       .  A
C312        H317   1.081       .  S
C313        C314   1.410       .  A
C314        F318   1.355   1_565  S
C315        C320   1.406       .  A
C315        C324   1.402       .  A
C320        C321   1.400       .  A
C320        F325   1.357       .  S
C321        C322   1.406       .  A
C321        H326   1.083       .  S
C322        C323   1.411       .  A
C323        C324   1.400       .  A
C323        F327   1.357   1_565  S
C324        H328   1.084   1_565  S
C329        C330   1.402       .  A
C329        C334   1.396       .  A
C329        H339   1.084       .  S
C330        C331   1.406       .  A
C330        C335   1.481       .  S
C331        C332   1.400       .  A
C331        F336   1.358       .  S
C332        C333   1.407       .  A
C332        H337   1.082       .  S
C333        C334   1.409       .  A
C334        F338   1.356       .  S
C335        C340   1.406       .  A
C335        C344   1.404       .  A
C340        C341   1.398       .  A
C340        F345   1.358       .  S
C341        C342   1.406       .  A
C341        H346   1.082       .  S
C342        C343   1.407       .  A
C343        C344   1.397       .  A
C343        F347   1.357       .  S
C344        H348   1.083       .  S
C349        C350   1.401       .  A
C349        C354   1.402       .  A
C349        H359   1.083       .  S
C350        C351   1.404       .  A
C350        C355   1.480       .  S
C351        C352   1.398       .  A
C351        F356   1.358       .  S
C352        C353   1.407       .  A
C352        H357   1.082       .  S
C353        C354   1.414       .  A
C354        F358   1.356       .  S
C355        C360   1.402       .  A
C355        C364   1.405       .  A
C360        C361   1.394       .  A
C360        F365   1.358       .  S
C361        C362   1.407       .  A
C361        H366   1.083       .  S
C362        C363   1.408       .  A
C363        C364   1.405       .  A
C363        F367   1.357       .  S
C364        H368   1.083       .  S
C369        C370   1.401       .  A
C369        C374   1.397       .  A
C369        H379   1.083       .  S
C370        C371   1.404       .  A
C370        C375   1.485       .  S
C371        C372   1.403       .  A
C371        F376   1.357       .  S
C372        C373   1.413       .  A
C372        H377   1.077       .  S
C373        C374   1.415       .  A
C374        F378   1.358       .  S
C375        C380   1.405       .  A
C375        C384   1.404       .  A
C380        C381   1.398       .  A
C380        F385   1.358       .  S
C381        C382   1.407       .  A
C381        H386   1.082       .  S
C382        C383   1.411       .  A
C383        C384   1.403       .  A
C383        F387   1.356       .  S
C384        H388   1.083       .  S
C389        C390   1.404       .  A
C389        C394   1.400       .  A
C389        H399   1.083       .  S
C390        C391   1.408       .  A
C390        C395   1.491       .  S
C391        C392   1.399       .  A
C391        F396   1.357       .  S
C392        C393   1.407       .  A
C392        H397   1.081       .  S
C393        C394   1.412       .  A
C394        F398   1.356       .  S
C395        C400   1.411       .  A
C395        C404   1.405       .  A
C400        C401   1.401       .  A
C400        F405   1.357       .  S
C401        C402   1.402       .  A
C401        H406   1.084       .  S
C402        C403   1.408       .  A
C403        C404   1.398       .  A
C403        F407   1.358       .  S
C404        H408   1.083       .  S
C409        C410   1.401       .  A
C409        C414   1.395       .  A
C409        H419   1.084       .  S
C410        C411   1.406       .  A
C410        C415   1.479       .  S
C411        C412   1.403       .  A
C411        F416   1.357       .  S
C412        C413   1.406       .  A
C412        H417   1.083       .  S
C413        C414   1.408       .  A
C414        F418   1.357       .  S
C415        C420   1.403       .  A
C415        C424   1.399       .  A
C420        C421   1.401       .  A
C420        F425   1.358       .  S
C421        C422   1.412       .  A
C421        H426   1.078       .  S
C422        C423   1.415       .  A
C423        C424   1.396       .  A
C423        F427   1.358       .  S
C424        H428   1.084       .  S
C429        C430   1.402       .  A
C429        C434   1.402       .  A
C429        H439   1.083       .  S
C430        C431   1.405       .  A
C430        C435   1.486       .  S
C431        C432   1.397       .  A
C431        F436   1.358       .  S
C432        C433   1.411       .  A
C432        H437   1.077       .  S
C433        C434   1.415       .  A
C434        F438   1.357       .  S
C435        C440   1.408       .  A
C435        C444   1.402       .  A
C440        C441   1.406       .  A
C440        F445   1.357       .  S
C441        C442   1.407       .  A
C441        H446   1.083       .  S
C442        C443   1.409       .  A
C443        C444   1.394       .  A
C443        F447   1.357       .  S
C444        H448   1.084       .  S
C449        C450   1.406   1_554  A
C449        C454   1.399       .  A
C449        H459   1.083       .  S
C450        C451   1.413       .  A
C450        C455   1.502       .  S
C451        C452   1.405   1_556  A
C451        F456   1.357       .  S
C452        C453   1.406       .  A
C452        H457   1.082       .  S
C453        C454   1.410       .  A
C454        F458   1.357       .  S
C455        C460   1.414       .  A
C455        C464   1.410       .  A
C460        C461   1.402       .  A
C460        F465   1.357       .  S
C461        C462   1.401       .  A
C461        H466   1.084       .  S
C462        C463   1.404       .  A
C463        C464   1.404       .  A
C463        F467   1.357       .  S
C464        H468   1.082       .  S
C469        C470   1.403       .  A
C469        C474   1.398       .  A
C469        H479   1.083       .  S
C470        C471   1.406       .  A
C470        C475   1.484       .  S
C471        C472   1.398       .  A
C471        F476   1.357       .  S
C472        C473   1.407       .  A
C472        H477   1.082       .  S
C473        C474   1.411       .  A
C474        F478   1.356       .  S
C475        C480   1.407   1_556  A
C475        C484   1.405       .  A
C480        C481   1.398       .  A
C480        F485   1.357       .  S
C481        C482   1.405   1_565  A
C481        H486   1.083       .  S
C482        C483   1.408       .  A
C483        C484   1.398   1_544  A
C483        F487   1.357   1_554  S
C484        H488   1.083       .  S
C489        C490   1.404       .  A
C489        C494   1.399       .  A
C489        H499   1.083       .  S
C490        C491   1.406       .  A
C490        C495   1.485       .  S
C491        C492   1.400       .  A
C491        F496   1.357       .  S
C492        C493   1.407       .  A
C492        H497   1.082       .  S
C493        C494   1.409       .  A
C494        F498   1.357       .  S
C495        C500   1.408       .  A
C495        C504   1.406       .  A
C500        C501   1.400       .  A
C500        F505   1.357       .  S
C501        C502   1.402       .  A
C501        H506   1.084       .  S
C502        C503   1.402       .  A
C503        C504   1.400       .  A
C503        F507   1.357       .  S
C504        H508   1.083       .  S
C509        C510   1.405       .  A
C509        C514   1.401       .  A
C509        H519   1.084       .  S
C510        C511   1.406       .  A
C510        C515   1.484       .  S
C511        C512   1.396       .  A
C511        F516   1.358   1_545  S
C512        C513   1.406       .  A
C512        H517   1.083       .  S
C513        C514   1.409       .  A
C514        F518   1.357       .  S
C515        C520   1.405       .  A
C515        C524   1.401       .  A
C520        C521   1.400       .  A
C520        F525   1.357       .  S
C521        C522   1.411   1_545  A
C521        H526   1.083       .  S
C522        C523   1.415       .  A
C523        C524   1.397   1_565  A
C523        F527   1.358       .  S
C524        H528   1.084   1_545  S
C529        C530   1.405       .  A
C529        C534   1.404       .  A
C529        H539   1.083       .  S
C530        C531   1.405       .  A
C530        C535   1.487       .  S
C531        C532   1.401       .  A
C531        F536   1.357       .  S
C532        C533   1.408       .  A
C532        H537   1.083       .  S
C533        C534   1.410       .  A
C534        F538   1.357       .  S
C535        C540   1.406   1_556  A
C535        C544   1.407       .  A
C540        C541   1.401       .  A
C540        F545   1.357       .  S
C541        C542   1.406       .  A
C541        H546   1.083       .  S
C542        C543   1.404       .  A
C543        C544   1.403   1_554  A
C543        F547   1.357   1_554  S
C544        H548   1.083       .  S
C549        C550   1.403       .  A
C549        C554   1.396       .  A
C549        H559   1.083       .  S
C550        C551   1.408       .  A
C550        C555   1.485       .  S
C551        C552   1.404       .  A
C551        F556   1.357       .  S
C552        C553   1.404       .  A
C552        H557   1.083       .  S
C553        C554   1.409       .  A
C554        F558   1.358       .  S
C555        C560   1.406       .  A
C555        C564   1.403       .  A
C560        C561   1.397       .  A
C560        F565   1.358       .  S
C561        C562   1.407       .  A
C561        H566   1.081       .  S
C562        C563   1.411       .  A
C563        C564   1.401       .  A
C563        F567   1.356       .  S
C564        H568   1.084       .  S
C569        C570   1.405       .  A
C569        C574   1.400       .  A
C569        H579   1.083       .  S
C570        C571   1.412       .  A
C570        C575   1.496       .  S
C571        C572   1.406       .  A
C571        F576   1.357   1_556  S
C572        C573   1.403       .  A
C572        H577   1.083       .  S
C573        C574   1.408       .  A
C574        F578   1.358       .  S
C575        C580   1.412       .  A
C575        C584   1.407   1_556  A
C580        C581   1.403       .  A
C580        F585   1.357       .  S
C581        C582   1.401   1_556  A
C581        H586   1.083       .  S
C582        C583   1.405       .  A
C583        C584   1.402       .  A
C583        F587   1.357       .  S
C584        H588   1.083       .  S
C589        C590   1.409       .  A
C589        C594   1.405       .  A
C589        H599   1.083       .  S
C590        C591   1.407   1_656  A
C590        C595   1.494   1_655  S
C591        C592   1.399   1_455  A
C591        F596   1.357       .  S
C592        C593   1.408       .  A
C592        H597   1.083       .  S
C593        C594   1.407   1_554  A
C594        F598   1.357       .  S
C595        C600   1.410   1_455  A
C595        C604   1.410       .  A
C600        C601   1.401   1_655  A
C600        F605   1.357       .  S
C601        C602   1.402       .  A
C601        H606   1.083       .  S
C602        C603   1.402       .  A
C603        C604   1.403       .  A
C603        F607   1.357       .  S
C604        H608   1.083       .  S
C609        C610   1.403       .  A
C609        C614   1.398       .  A
C609        H619   1.083       .  S
C610        C611   1.406   1_454  A
C610        C615   1.483   1_554  S
C611        C612   1.400   1_556  A
C611        F616   1.357       .  S
C612        C613   1.406   1_655  A
C612        H617   1.083       .  S
C613        C614   1.410       .  A
C614        F618   1.356       .  S
C615        C620   1.406   1_565  A
C615        C624   1.403       .  A
C620        C621   1.398       .  A
C620        F625   1.358   1_556  S
C621        C622   1.406       .  A
C621        H626   1.082       .  S
C622        C623   1.410   1_545  A
C623        C624   1.399       .  A
C623        F627   1.357       .  S
C624        H628   1.083       .  S
C629        C630   1.407       .  A
C629        C634   1.399       .  A
C629        H639   1.083       .  S
C630        C631   1.412       .  A
C630        C635   1.494       .  S
C631        C632   1.402       .  A
C631        F636   1.357       .  S
C632        C633   1.401       .  A
C632        H637   1.083       .  S
C633        C634   1.405       .  A
C634        F638   1.358       .  S
C635        C640   1.411       .  A
C635        C644   1.405       .  A
C640        C641   1.402       .  A
C640        F645   1.357       .  S
C641        C642   1.405       .  A
C641        H646   1.083       .  S
C642        C643   1.410       .  A
C643        C644   1.400       .  A
C643        F647   1.357       .  S
C644        H648   1.083       .  S
C649        C650   1.407       .  A
C649        C654   1.402       .  A
C649        H659   1.083       .  S
C650        C651   1.413   1_545  A
C650        C655   1.497       .  S
C651        C652   1.403       .  A
C651        F656   1.357       .  S
C652        C653   1.400       .  A
C652        H657   1.083       .  S
C653        C654   1.405   1_565  A
C654        F658   1.358       .  S
C655        C660   1.413   1_545  A
C655        C664   1.406       .  A
C660        C661   1.405       .  A
C660        F665   1.357       .  S
C661        C662   1.402       .  A
C661        H666   1.082       .  S
C662        C663   1.408   1_565  A
C663        C664   1.400       .  A
C663        F667   1.358       .  S
C664        H668   1.083       .  S
C669        C670   1.404       .  A
C669        C674   1.401       .  A
C669        H679   1.083       .  S
C670        C671   1.404       .  A
C670        C675   1.491       .  S
C671        C672   1.402       .  A
C671        F676   1.358       .  S
C672        C673   1.414       .  A
C672        H677   1.073       .  S
C673        C674   1.414       .  A
C674        F678   1.358       .  S
C675        C680   1.405       .  A
C675        C684   1.406       .  A
C680        C681   1.399       .  A
C680        F685   1.358       .  S
C681        C682   1.410       .  A
C681        H686   1.081       .  S
C682        C683   1.412       .  A
C683        C684   1.405       .  A
C683        F687   1.356       .  S
C684        H688   1.083       .  S
C689        C690   1.402       .  A
C689        C694   1.399       .  A
C689        H699   1.084       .  S
C690        C691   1.403       .  A
C690        C695   1.484       .  S
C691        C692   1.402       .  A
C691        F696   1.357       .  S
C692        C693   1.411       .  A
C692        H697   1.081       .  S
C693        C694   1.414       .  A
C694        F698   1.355       .  S
C695        C700   1.405       .  A
C695        C704   1.405       .  A
C700        C701   1.397       .  A
C700        F705   1.358       .  S
C701        C702   1.405       .  A
C701        H706   1.083       .  S
C702        C703   1.408       .  A
C703        C704   1.403       .  A
C703        F707   1.357       .  S
C704        H708   1.083       .  S
C709        C710   1.401       .  A
C709        C714   1.395       .  A
C709        H719   1.083       .  S
C710        C711   1.405       .  A
C710        C715   1.485       .  S
C711        C712   1.402       .  A
C711        F716   1.358       .  S
C712        C713   1.412       .  A
C712        H717   1.076       .  S
C713        C714   1.413       .  A
C714        F718   1.358       .  S
C715        C720   1.405       .  A
C715        C724   1.404       .  A
C720        C721   1.396       .  A
C720        F725   1.358       .  S
C721        C722   1.407       .  A
C721        H726   1.081       .  S
C722        C723   1.412       .  A
C723        C724   1.402       .  A
C723        F727   1.356       .  S
C724        H728   1.083       .  S
C729        C730   1.401       .  A
C729        C734   1.400       .  A
C729        H739   1.083   1_565  S
C730        C731   1.407       .  A
C730        C735   1.485       .  S
C731        C732   1.405       .  A
C731        F736   1.357       .  S
C732        C733   1.405       .  A
C732        H737   1.083       .  S
C733        C734   1.412       .  A
C734        F738   1.358   1_565  S
C735        C740   1.408       .  A
C735        C744   1.402       .  A
C740        C741   1.405       .  A
C740        F745   1.357       .  S
C741        C742   1.404       .  A
C741        H746   1.083       .  S
C742        C743   1.407       .  A
C743        C744   1.400       .  A
C743        F747   1.357       .  S
C744        H748   1.084       .  S
C749        C750   1.402       .  A
C749        C754   1.400       .  A
C749        H759   1.084       .  S
C750        C751   1.404       .  A
C750        C755   1.477       .  S
C751        C752   1.397       .  A
C751        F756   1.358       .  S
C752        C753   1.406       .  A
C752        H757   1.082       .  S
C753        C754   1.410       .  A
C754        F758   1.356   1_655  S
C755        C760   1.401       .  A
C755        C764   1.400       .  A
C760        C761   1.399       .  A
C760        F765   1.358       .  S
C761        C762   1.414   1_545  A
C761        H766   1.069       .  S
C762        C763   1.414   1_565  A
C763        C764   1.398       .  A
C763        F767   1.358   1_545  S
C764        H768   1.082       .  S
C769        C770   1.406       .  A
C769        C774   1.403       .  A
C769        H779   1.083   1_565  S
C770        C771   1.407       .  A
C770        C775   1.488       .  S
C771        C772   1.402       .  A
C771        F776   1.357   1_655  S
C772        C773   1.402       .  A
C772        H777   1.083       .  S
C773        C774   1.405       .  A
C774        F778   1.357   1_565  S
C775        C780   1.404       .  A
C775        C784   1.407   1_655  A
C780        C781   1.400   1_655  A
C780        F785   1.358       .  S
C781        C782   1.408       .  A
C781        H786   1.083   1_455  S
C782        C783   1.406       .  A
C783        C784   1.406       .  A
C783        F787   1.357       .  S
C784        H788   1.083       .  S
C789        C790   1.403       .  A
C789        C794   1.401       .  A
C789        H799   1.084       .  S
C790        C791   1.404       .  A
C790        C795   1.483       .  S
C791        C792   1.398       .  A
C791        F796   1.358       .  S
C792        C793   1.407       .  A
C792        H797   1.082       .  S
C793        C794   1.411       .  A
C794        F798   1.356   1_655  S
C795        C800   1.405       .  A
C795        C804   1.403   1_655  A
C800        C801   1.400       .  A
C800        F805   1.358       .  S
C801        C802   1.408       .  A
C801        H806   1.082       .  S
C802        C803   1.409   1_655  A
C803        C804   1.398       .  A
C803        F807   1.356       .  S
C804        H808   1.083       .  S
C809        C810   1.401       .  A
C809        C814   1.396       .  A
C809        H819   1.084       .  S
C810        C811   1.409       .  A
C810        C815   1.488       .  S
C811        C812   1.406       .  A
C811        F816   1.357       .  S
C812        C813   1.406       .  A
C812        H817   1.082       .  S
C813        C814   1.412       .  A
C814        F818   1.357       .  S
C815        C820   1.409       .  A
C815        C824   1.402       .  A
C820        C821   1.402       .  A
C820        F825   1.358       .  S
C821        C822   1.405       .  A
C821        H826   1.082       .  S
C822        C823   1.411       .  A
C823        C824   1.401       .  A
C823        F827   1.357       .  S
C824        H828   1.084       .  S
C829        C830   1.402       .  A
C829        C834   1.396       .  A
C829        H839   1.083       .  S
C830        C831   1.406       .  A
C830        C835   1.483       .  S
C831        C832   1.404       .  A
C831        F836   1.357       .  S
C832        C833   1.408       .  A
C832        H837   1.083       .  S
C833        C834   1.410       .  A
C834        F838   1.357       .  S
C835        C840   1.402       .  A
C835        C844   1.402       .  A
C840        C841   1.395       .  A
C840        F845   1.358       .  S
C841        C842   1.412       .  A
C841        H846   1.074       .  S
C842        C843   1.415       .  A
C843        C844   1.404       .  A
C843        F847   1.357       .  S
C844        H848   1.083       .  S
