geometry optimzed in LAMMPS
_audit_creation_date              2020-12-01 
_audit_creation_method            'lammps2cif' 
_symmetry_space_group_name_H-M    'P1' 
_symmetry_Int_Tables_number       1 
_symmetry_cell_setting            triclinic 
loop_ 
_symmetry_equiv_pos_as_xyz 
  x,y,z 
_cell_length_a                    31.62545521 
_cell_length_b                    31.620996212237706 
_cell_length_c                    35.16714122328341 
_cell_angle_alpha                 89.47214538534554 
_cell_angle_beta                  90.348808358545 
_cell_angle_gamma                 90.71641958901637 
loop_ 
_atom_site_label 
_atom_site_type_symbol 
_atom_site_fract_x 
_atom_site_fract_y 
_atom_site_fract_z 
_atom_site_charge 
N1          N  0.46402812  0.50951859  0.44518799    -0.36700
N2          N  0.46074980  0.44057226  0.49977310    -0.57300
N3          N  0.96374548  0.00981003  0.55257736    -0.36700
N4          N  0.96221183  0.07882535  0.49798412    -0.57300
C5          C  0.45370908  0.47452039  0.42535059     0.26900
C6          C  0.45019308  0.04304825  0.42481497     0.26900
C7          C  0.94877565  0.47614176  0.57245200     0.26900
C8          C  0.95287093  0.04466462  0.57183532     0.26900
C9          C  0.47675195  0.42001277  0.46982722     0.35500
C10         C  0.47340200  0.41990950  0.53144860     0.35500
C11         C  0.97559643  0.09949847  0.46648717     0.35500
C12         C  0.97847425  0.09923064  0.52837947     0.35500
C13         C  0.43107133  0.48545757  0.39300521    -0.22000
C14         C  0.42812855  0.02882278  0.39300190    -0.23000
C15         C  0.92567754  0.48992139  0.60331163    -0.22000
C16         C  0.92876088  0.03338402  0.60315843    -0.22000
C17         C  0.49846579  0.38466197  0.48224516    -0.23000
C18         C  0.49641948  0.38459980  0.52153381    -0.23000
C19         C  0.99955309  0.13466669  0.47689364    -0.23000
C20         C  0.00141969  0.13443637  0.51633862    -0.23000
C21         C  0.47218082  0.43493031  0.43216668    -0.18400
C22         C  0.96688690  0.08445649  0.42938438    -0.18400
C23         C  0.97248035  0.08433507  0.56602561    -0.18400
C24         C  0.46491287  0.43505773  0.56829697    -0.18400
H25         H  0.42029326  0.46455801  0.37064375     0.14500
H26         H  0.41472079  0.04793825  0.37037047     0.14500
H27         H  0.91134369  0.47055839  0.62539240     0.14500
H28         H  0.91718846  0.05414611  0.62496643     0.14500
H29         H  0.51531017  0.36220479  0.46518245     0.12800
H30         H  0.51180357  0.36212707  0.54015976     0.12800
H31         H  0.01543671  0.15718381  0.45841418     0.12800
H32         H  0.01869334  0.15680266  0.53378864     0.12800
H33         H  0.48655910  0.51072342  0.46694281     0.26100
H34         H  0.98712090  0.00886344  0.53180687     0.26100
In35       In  0.01582717  0.00749274  0.74917228     1.36900
C36         C  0.45432960  0.49506236  0.79954053     0.77500
O37         O  0.47563982  0.47205827  0.70786766    -0.61000
O38         O  0.03428766  0.44440233  0.72300699    -0.51900
C39         C  0.01759387  0.07032754  0.69739113     0.70200
O40         O  0.50050126  0.07479791  0.72938220    -0.46700
C41         C  0.08080068  0.01535010  0.79846157     0.74900
O42         O  0.45180435  0.02369182  0.77439259    -0.58600
O43         O  0.08434163  0.49496147  0.76796304    -0.48700
O44         O  0.48593048  0.47141846  0.79663280    -0.55000
C45         C  0.50184843  0.44323888  0.70187415     0.85000
O46         O  0.03724301  0.03630545  0.69395384    -0.56900
O47         O  0.04653767  0.03478521  0.80121241    -0.60200
In48       In  0.51981468  0.50838151  0.25102201     1.36900
C49         C  0.02354695  0.44688349  0.30372582     0.77500
O50         O  0.08836723  0.49740244  0.23285153    -0.61000
O51         O  0.04816227  0.03262320  0.19664765    -0.51900
C52         C  0.45641512  0.99294466  0.20280469     0.70200
O53         O  0.48728799  0.46874540  0.20777795    -0.46700
C54         C  0.50521651  0.07308796  0.29703925     0.74900
O55         O  0.50581969  0.44142860  0.27196495    -0.58600
O56         O  0.03519604  0.07479110  0.27342522    -0.48700
O57         O  0.04324498  0.48154491  0.30669577    -0.55000
C58         C  0.08327595  0.51501250  0.20078344     0.85000
O59         O  0.45577026  0.02433551  0.22471138    -0.56900
O60         O  0.48138126  0.04111649  0.29395396    -0.60200
C61         C  0.99744022  0.35167496  0.36206436     0.80100
N62         N  0.98689330  0.37047264  0.39526249    -0.78200
C63         C  0.99054782  0.41291812  0.39911159     0.82600
N64         N  0.00712423  0.43632000  0.37014069    -0.78100
C65         C  0.01691948  0.41842008  0.33652177     0.82700
N66         N  0.01139489  0.37598069  0.33226211    -0.79800
N67         N  0.02127129  0.47010004  0.94712686    -0.36700
N68         N  0.08937352  0.47756567  0.00022888    -0.57300
N69         N  0.02216735  0.46767530  0.05465149    -0.36700
N70         N  0.45310182  0.45665391  0.00155969    -0.57300
C71         C  0.05649527  0.46182398  0.92714702     0.26900
C72         C  0.48861878  0.45103265  0.92895074     0.26900
C73         C  0.05818334  0.46023587  0.07427946     0.26900
C74         C  0.49025740  0.44899200  0.07423311     0.26900
C75         C  0.10927824  0.49306842  0.96923375     0.35500
C76         C  0.10966719  0.49267987  0.03107810     0.35500
C77         C  0.43127023  0.46998765  0.97083098     0.35500
C78         C  0.43173910  0.46838960  0.03263859     0.35500
C79         C  0.04665343  0.43534194  0.89713428    -0.22000
C80         C  0.50371852  0.42803455  0.89855329    -0.22000
C81         C  0.04957502  0.43454888  0.10549139    -0.22000
C82         C  0.50666562  0.42696989  0.10521053    -0.22000
C83         C  0.14373580  0.51767520  0.98028100    -0.23000
C84         C  0.14397660  0.51743005  0.01983078    -0.23000
C85         C  0.39475284  0.49000473  0.98229239    -0.23000
C86         C  0.39503372  0.48893478  0.02178913    -0.23000
C87         C  0.09515108  0.48381012  0.93201259    -0.18400
C88         C  0.44624721  0.46363156  0.93360285    -0.18400
C89         C  0.44741160  0.46064632  0.06967867    -0.18400
C90         C  0.09634727  0.48286618  0.06842574    -0.18400
H91         H  0.06783931  0.42446784  0.87533299     0.14500
H92         H  0.48516620  0.41082634  0.87770545     0.14500
H93         H  0.07158037  0.42456188  0.12739820     0.14500
H94         H  0.48908617  0.41019158  0.12707347     0.14500
H95         H  0.16588626  0.53433643  0.96202753     0.12800
H96         H  0.16640104  0.53379949  0.03800143     0.12800
H97         H  0.37112155  0.50490433  0.96452997     0.12800
H98         H  0.37172465  0.50290805  0.04002551     0.12800
H99         H  0.01853405  0.49381360  0.96739343     0.26100
H100        H  0.01862237  0.49083147  0.03357946     0.26100
C101        C  0.36132798  0.97621282  0.14133234     0.80100
N102        N  0.38076767  0.96854312  0.10748725    -0.78200
C103        C  0.42362940  0.97042936  0.10499239     0.82600
N104        N  0.44639293  0.98057570  0.13633259    -0.78100
C105        C  0.42806074  0.98736487  0.17010406     0.82700
N106        N  0.38525625  0.98595876  0.17270677    -0.79800
C107        C  0.49605532  0.16868049  0.35789592     0.80100
N108        N  0.50403707  0.14446974  0.32676289    -0.78200
C109        C  0.50050136  0.10167741  0.32945202     0.82600
N110        N  0.49007277  0.08369142  0.36310177    -0.78100
C111        C  0.48111414  0.10700586  0.39406324     0.82700
N112        N  0.48402072  0.14971828  0.39126997    -0.79800
C113        C  0.17918365  0.49379104  0.14303772     0.80100
N114        N  0.15445705  0.50224923  0.17372467    -0.78200
C115        C  0.11291849  0.51160817  0.16863412     0.82600
N116        N  0.09620700  0.51053795  0.13306087    -0.78100
C117        C  0.11929933  0.49771350  0.10290852     0.82700
N118        N  0.16102124  0.48998241  0.10794222    -0.79800
C119        C  0.36008820  0.48588119  0.86237126     0.80100
N120        N  0.38377523  0.49396299  0.83062507    -0.78200
C121        C  0.42657376  0.49168777  0.83272792     0.82600
N122        N  0.44517156  0.48360346  0.86649365    -0.78100
C123        C  0.42253555  0.47552244  0.89830881     0.82700
N124        N  0.37969290  0.47697084  0.89620945    -0.79800
C125        C  0.49074554  0.34960727  0.63846954     0.80100
N126        N  0.48091231  0.36975173  0.60532726    -0.78200
C127        C  0.47809548  0.41231043  0.60363433     0.82600
N128        N  0.48645131  0.43480552  0.63542028    -0.78100
C129        C  0.49694134  0.41575565  0.66863072     0.82700
N130        N  0.49989681  0.37283837  0.67024030    -0.79800
C131        C  0.99960775  0.16669162  0.63799663     0.80100
N132        N  0.00840765  0.14171367  0.66882826    -0.78200
C133        C  0.01131921  0.09916535  0.66474513     0.82600
N134        N  0.00302116  0.08180280  0.63036284    -0.78100
C135        C  0.99023187  0.10584566  0.60028998     0.82700
N136        N  0.98935395  0.14842109  0.60409141    -0.79800
C137        C  0.17778534  0.00001007  0.85801724     0.80100
N138        N  0.15956898  0.99434560  0.89279983    -0.78200
C139        C  0.11726773  0.99860526  0.89696116     0.82600
N140        N  0.09357722  0.00970592  0.86619610    -0.78100
C141        C  0.11055383  0.01271869  0.83096271     0.82700
N142        N  0.15287003  0.00696043  0.82668853    -0.79800
C143        C  0.02319620  0.28273015  0.66067664    -0.05900
C144        C  0.49114921  0.30266139  0.63957996     0.00100
C145        C  0.46103869  0.27746807  0.61941774    -0.08500
C146        C  0.46460760  0.23332632  0.62107805    -0.05900
C147        C  0.99717505  0.21336721  0.64132832     0.00000
C148        C  0.02730642  0.23838352  0.66143148    -0.08400
C149        C  0.06478157  0.21888230  0.68201067     0.62000
H150        H  0.04592013  0.30238534  0.67571364     0.12600
H151        H  0.44200414  0.21375705  0.60581011     0.12700
C152        C  0.42481127  0.29629819  0.59633813     0.62200
F153        F  0.09308470  0.24934577  0.69494827    -0.23000
F154        F  0.08628095  0.19278084  0.65760166    -0.20300
F155        F  0.05092176  0.19571404  0.71313733    -0.20000
F156        F  0.44025224  0.31550220  0.56370642    -0.20000
F157        F  0.40355246  0.32552947  0.61785231    -0.20400
F158        F  0.39571255  0.26574984  0.58507738    -0.23000
C159        C  0.29504509  0.02153142  0.84022355    -0.05900
C160        C  0.31324892  0.48744939  0.85998955     0.00100
C161        C  0.28654736  0.45606061  0.87663249    -0.08500
C162        C  0.24248308  0.46051853  0.87333123    -0.05900
C163        C  0.22426570  0.99538650  0.85486340     0.00000
C164        C  0.25088891  0.02667008  0.83806136    -0.08400
C165        C  0.23310349  0.06656900  0.82011167     0.62000
H166        H  0.31591295  0.04512133  0.82764092     0.12600
H167        H  0.22162412  0.43721413  0.88636454     0.12700
C168        C  0.30401980  0.41806530  0.89804307     0.62200
F169        F  0.26477751  0.09467203  0.80912720    -0.23000
F170        F  0.20776418  0.08680202  0.84601447    -0.20300
F171        F  0.20950499  0.05646106  0.78819566    -0.20000
F172        F  0.32107252  0.43093427  0.93239646    -0.20000
F173        F  0.33486008  0.39884702  0.87673920    -0.20400
F174        F  0.27286838  0.38807376  0.90567964    -0.23000
C175        C  0.29643102  0.00958112  0.16540739    -0.05900
C176        C  0.31438958  0.97755174  0.14351617     0.00100
C177        C  0.28731328  0.44840783  0.12465574    -0.08500
C178        C  0.24332684  0.45433846  0.12620844    -0.05900
C179        C  0.22545790  0.48723526  0.14707144     0.00000
C180        C  0.25236140  0.01466110  0.16791596    -0.08400
C181        C  0.23501941  0.04998717  0.19204042     0.62000
H182        H  0.31742035  0.03128042  0.18017463     0.12600
H183        H  0.22232884  0.43326807  0.11069926     0.12700
C184        C  0.30417432  0.41022728  0.10392241     0.62200
F185        F  0.26688851  0.07551266  0.20677006    -0.23000
F186        F  0.21274630  0.03278137  0.22228161    -0.20300
F187        F  0.20863559  0.07527996  0.17038468    -0.20000
F188        F  0.33350756  0.38960575  0.12652996    -0.20000
F189        F  0.32286269  0.42287382  0.07019510    -0.20400
F190        F  0.27224354  0.38142429  0.09532789    -0.23000
C191        C  0.46283461  0.23640171  0.37323111    -0.05900
C192        C  0.49603473  0.21554003  0.35527470     0.00100
C193        C  0.02871750  0.23970524  0.33772332    -0.08500
C194        C  0.02738589  0.28417081  0.33984891    -0.05900
C195        C  0.99477545  0.30493840  0.35888276     0.00000
C196        C  0.46118509  0.28067541  0.37502567    -0.08400
C197        C  0.42322307  0.30084887  0.39367775     0.62000
H198        H  0.43800029  0.21749972  0.38631958     0.12600
H199        H  0.05252169  0.30315023  0.32735839     0.12700
C200        C  0.06556298  0.21889635  0.31803434     0.62200
F201        F  0.39016170  0.27216512  0.39826666    -0.23000
F202        F  0.40850094  0.33386612  0.37137376    -0.20300
F203        F  0.43445277  0.31570963  0.42924157    -0.20000
F204        F  0.05129339  0.19848072  0.28572856    -0.20000
F205        F  0.08436459  0.18997350  0.34235516    -0.20400
F206        F  0.09620293  0.24811018  0.30707001    -0.23000
N207        N  0.46405304  0.00952343  0.44518324    -0.36700
N208        N  0.46081462  0.94059225  0.49977444    -0.57300
N209        N  0.96364737  0.50979453  0.55257753    -0.36700
N210        N  0.96214188  0.57882006  0.49799298    -0.57300
C211        C  0.45373188  0.97452429  0.42534832     0.26900
C212        C  0.45017693  0.54304603  0.42481741     0.26900
C213        C  0.94886928  0.97616239  0.57245657     0.26900
C214        C  0.95276050  0.54464552  0.57183507     0.26900
C215        C  0.47679347  0.92002281  0.46982399     0.35500
C216        C  0.47346349  0.91992194  0.53144696     0.35500
C217        C  0.97555753  0.59948907  0.46650521     0.35500
C218        C  0.97840106  0.59921146  0.52839616     0.35500
C219        C  0.43108477  0.98545800  0.39300728    -0.22000
C220        C  0.42812032  0.52882336  0.39299917    -0.23000
C221        C  0.92578321  0.98995110  0.60332070    -0.22000
C222        C  0.92864282  0.53335579  0.60315136    -0.22000
C223        C  0.49849257  0.88466049  0.48223648    -0.23000
C224        C  0.49645720  0.88459872  0.52152696    -0.23000
C225        C  0.99953474  0.63463806  0.47692360    -0.23000
C226        C  0.00138083  0.63440099  0.51636863    -0.23000
C227        C  0.47220322  0.93493448  0.43216324    -0.18400
C228        C  0.96685845  0.58445720  0.42939975    -0.18400
C229        C  0.97237455  0.58431735  0.56603727    -0.18400
C230        C  0.46498445  0.93507010  0.56829707    -0.18400
H231        H  0.42030306  0.96455702  0.37064819     0.14500
H232        H  0.41471968  0.54794071  0.37036561     0.14500
H233        H  0.91144597  0.97059414  0.62540387     0.14500
H234        H  0.91706146  0.55411278  0.62495928     0.14500
H235        H  0.51531199  0.86219065  0.46516685     0.12800
H236        H  0.51182578  0.86211355  0.54015159     0.12800
H237        H  0.01544682  0.65714285  0.45845160     0.12800
H238        H  0.01866544  0.65675055  0.53382712     0.12800
H239        H  0.48659068  0.01073121  0.46693230     0.26100
H240        H  0.98703149  0.50885426  0.53181470     0.26100
In241      In  0.01581983  0.50746727  0.74916512     1.36900
C242        C  0.45433500  0.99510744  0.79956317     0.77500
O243        O  0.47568739  0.97212734  0.70781289    -0.61000
O244        O  0.03424758  0.94437673  0.72306872    -0.51900
C245        C  0.01754238  0.57030679  0.69739115     0.70200
O246        O  0.50048721  0.57477930  0.72939502    -0.46700
C247        C  0.08078605  0.51532945  0.79846517     0.74900
O248        O  0.45180231  0.52365989  0.77438207    -0.58600
O249        O  0.08434305  0.99496184  0.76796910    -0.48700
O250        O  0.48594146  0.97147063  0.79666214    -0.55000
C251        C  0.50185626  0.94325554  0.70187866     0.85000
O252        O  0.03718144  0.53628204  0.69393488    -0.56900
O253        O  0.04650723  0.53473455  0.80122716    -0.60200
In254      In  0.51981885  0.00835444  0.25099327     1.36900
C255        C  0.02350298  0.94686782  0.30370807     0.77500
O256        O  0.08834247  0.99724358  0.23281558    -0.61000
O257        O  0.04810450  0.53266345  0.19666443    -0.51900
C258        C  0.45640135  0.49298787  0.20284013     0.70200
O259        O  0.48730192  0.96870542  0.20775416    -0.46700
C260        C  0.50519556  0.57310775  0.29706093     0.74900
O261        O  0.50569954  0.94145453  0.27197508    -0.58600
O262        O  0.03515474  0.57483893  0.27343116    -0.48700
O263        O  0.04328680  0.98148559  0.30664656    -0.55000
C264        C  0.08329421  0.01488902  0.20075806     0.85000
O265        O  0.45575163  0.52435996  0.22476815    -0.56900
O266        O  0.48138043  0.54111833  0.29399461    -0.60200
C267        C  0.99731961  0.85167881  0.36202357     0.80100
N268        N  0.98679634  0.87047012  0.39523106    -0.78200
C269        C  0.99052110  0.91290896  0.39909983     0.82600
N270        N  0.00712302  0.93630496  0.37013503    -0.78100
C271        C  0.01687783  0.91840903  0.33650456     0.82700
N272        N  0.01129630  0.87598093  0.33223007    -0.79800
N273        N  0.02122930  0.97006164  0.94711114    -0.36700
N274        N  0.08932750  0.97745097  0.00021168    -0.57300
N275        N  0.02214588  0.96742924  0.05464274    -0.36700
N276        N  0.45307180  0.95648814  0.00155884    -0.57300
C277        C  0.05644912  0.96180588  0.92711978     0.26900
C278        C  0.48858747  0.95098144  0.92894756     0.26900
C279        C  0.05816427  0.96001938  0.07427944     0.26900
C280        C  0.49023561  0.94877912  0.07424156     0.26900
C281        C  0.10923385  0.99299029  0.96923058     0.35500
C282        C  0.10963420  0.99251299  0.03107391     0.35500
C283        C  0.43122368  0.96983452  0.97084286     0.35500
C284        C  0.43169762  0.96816666  0.03264956     0.35500
C285        C  0.04661195  0.93532887  0.89710295    -0.22000
C286        C  0.50368802  0.92799729  0.89854275    -0.22000
C287        C  0.04955615  0.93436530  0.10551405    -0.22000
C288        C  0.50664554  0.92679389  0.10523952    -0.22000
C289        C  0.14370227  0.01756819  0.98029872    -0.23000
C290        C  0.14395014  0.01726688  0.01984752    -0.23000
C291        C  0.39467834  0.98978639  0.98232430    -0.23000
C292        C  0.39496228  0.98867169  0.02181906    -0.23000
C293        C  0.09510597  0.98377956  0.93200123    -0.18400
C294        C  0.44621523  0.96355735  0.93360766    -0.18400
C295        C  0.44738640  0.96042723  0.06968557    -0.18400
C296        C  0.09632898  0.98265223  0.06841644    -0.18400
H297        H  0.06779781  0.92446584  0.87529715     0.14500
H298        H  0.48513621  0.91078168  0.87769949     0.14500
H299        H  0.07155932  0.92440993  0.12743455     0.14500
H300        H  0.48906671  0.91004431  0.12712034     0.14500
H301        H  0.16585739  0.03424370  0.96206003     0.12800
H302        H  0.16638689  0.03359954  0.03803267     0.12800
H303        H  0.37102590  0.00467629  0.96457875     0.12800
H304        H  0.37163369  0.00259454  0.04006675     0.12800
H305        H  0.01848577  0.99376698  0.96738516     0.26100
H306        H  0.01859587  0.99056613  0.03355525     0.26100
C307        C  0.36133036  0.47640399  0.14131152     0.80100
N308        N  0.38077958  0.46877907  0.10746092    -0.78200
C309        C  0.42364472  0.47062433  0.10498668     0.82600
N310        N  0.44640187  0.48069083  0.13635200    -0.78100
C311        C  0.42805967  0.48744360  0.17012510     0.82700
N312        N  0.38525442  0.48607369  0.17270792    -0.79800
C313        C  0.49602990  0.66869594  0.35791722     0.80100
N314        N  0.50401118  0.64448719  0.32678352    -0.78200
C315        C  0.50048387  0.60169524  0.32947243     0.82600
N316        N  0.49006843  0.58370597  0.36312256    -0.78100
C317        C  0.48110351  0.60701573  0.39408374     0.82700
N318        N  0.48399846  0.64973103  0.39129246    -0.79800
C319        C  0.17917831  0.99351849  0.14302484     0.80100
N320        N  0.15446364  0.00203150  0.17370745    -0.78200
C321        C  0.11293477  0.01143171  0.16861067     0.82600
N322        N  0.09622476  0.01035857  0.13303721    -0.78100
C323        C  0.11930090  0.99747711  0.10289489     0.82700
N324        N  0.16101229  0.98968741  0.10793392    -0.79800
C325        C  0.36008041  0.98589983  0.86238659     0.80100
N326        N  0.38377106  0.99400418  0.83064505    -0.78200
C327        C  0.42657156  0.99173047  0.83275077     0.82600
N328        N  0.44516291  0.98361625  0.86651495    -0.78100
C329        C  0.42251971  0.97550500  0.89832161     0.82700
N330        N  0.37968081  0.97696193  0.89621832    -0.79800
C331        C  0.49074089  0.84960432  0.63848458     0.80100
N332        N  0.48092798  0.86974842  0.60533499    -0.78200
C333        C  0.47815096  0.91231135  0.60363403     0.82600
N334        N  0.48651837  0.93480610  0.63541728    -0.78100
C335        C  0.49696680  0.91575849  0.66863816     0.82700
N336        N  0.49989024  0.87283749  0.67025680    -0.79800
C337        C  0.99958180  0.66667602  0.63799101     0.80100
N338        N  0.00838020  0.64169795  0.66882395    -0.78200
C339        C  0.01124029  0.59914337  0.66475023     0.82600
N340        N  0.00289559  0.58177652  0.63037944    -0.78100
C341        C  0.99011929  0.60582262  0.60030610     0.82700
N342        N  0.98928920  0.64840195  0.60409582    -0.79800
C343        C  0.17779981  0.50005206  0.85799850     0.80100
N344        N  0.15959742  0.49439237  0.89278821    -0.78200
C345        C  0.11729481  0.49862975  0.89696005     0.82600
N346        N  0.09358815  0.50970602  0.86619806    -0.78100
C347        C  0.11055134  0.51271646  0.83095929     0.82700
N348        N  0.15287013  0.50698105  0.82667490    -0.79800
C349        C  0.02320561  0.78271751  0.66066902    -0.05900
C350        C  0.49113818  0.80265579  0.63959597     0.00100
C351        C  0.46101127  0.77746752  0.61944988    -0.08500
C352        C  0.46458627  0.73332406  0.62108809    -0.05900
C353        C  0.99716939  0.71335705  0.64131792     0.00000
C354        C  0.02731432  0.73836887  0.66141173    -0.08400
C355        C  0.06480677  0.71886339  0.68196148     0.62000
H356        H  0.04594134  0.80236909  0.67569550     0.12600
H357        H  0.44197222  0.71376203  0.60582505     0.12700
C358        C  0.42475496  0.79630792  0.59641683     0.62200
F359        F  0.09310605  0.74932584  0.69490810    -0.23000
F360        F  0.08630085  0.69279131  0.65752332    -0.20300
F361        F  0.05097475  0.69566393  0.71307930    -0.20000
F362        F  0.44015025  0.81549311  0.56375830    -0.20000
F363        F  0.40355103  0.82555973  0.61795246    -0.20400
F364        F  0.39561933  0.76576865  0.58521115    -0.23000
C365        C  0.29506647  0.52152094  0.84018745    -0.05900
C366        C  0.31324070  0.98745844  0.86001281     0.00100
C367        C  0.28655053  0.95606249  0.87666296    -0.08500
C368        C  0.24248446  0.96051052  0.87337236    -0.05900
C369        C  0.22427688  0.49540595  0.85482868     0.00000
C370        C  0.25091255  0.52667958  0.83802683    -0.08400
C371        C  0.23314696  0.56659923  0.82009832     0.62000
H372        H  0.31594408  0.54510209  0.82760476     0.12600
H373        H  0.22163378  0.93720101  0.88640896     0.12700
C374        C  0.30403597  0.91806148  0.89805890     0.62200
F375        F  0.26483645  0.59467093  0.80908458    -0.23000
F376        F  0.20786479  0.58685366  0.84603225    -0.20300
F377        F  0.20949565  0.55652457  0.78820512    -0.20000
F378        F  0.32111090  0.93091824  0.93240725    -0.20000
F379        F  0.33486108  0.89884768  0.87673394    -0.20400
F380        F  0.27288942  0.88806865  0.90570679    -0.23000
C381        C  0.29643660  0.50959586  0.16560232    -0.05900
C382        C  0.31438847  0.47774090  0.14349880     0.00100
C383        C  0.28732720  0.94805712  0.12486286    -0.08500
C384        C  0.24333416  0.95397400  0.12638562    -0.05900
C385        C  0.22545754  0.98701696  0.14705515     0.00000
C386        C  0.25236936  0.51468363  0.16813396    -0.08400
C387        C  0.23504869  0.54982218  0.19249248     0.62000
H388        H  0.31743025  0.53116519  0.18051545     0.12600
H389        H  0.22233706  0.93277197  0.11101978     0.12700
C390        C  0.30422116  0.90970946  0.10440076     0.62200
F391        F  0.26693723  0.57514610  0.20746552    -0.23000
F392        F  0.21267782  0.53239315  0.22257511    -0.20300
F393        F  0.20876631  0.57536262  0.17097577    -0.20000
F394        F  0.33347078  0.88923839  0.12721006    -0.20000
F395        F  0.32302675  0.92208471  0.07064923    -0.20400
F396        F  0.27229656  0.88086696  0.09589611    -0.23000
C397        C  0.46275725  0.73641034  0.37319973    -0.05900
C398        C  0.49599000  0.71555408  0.35528430     0.00100
C399        C  0.02867867  0.73972815  0.33775044    -0.08500
C400        C  0.02731699  0.78419156  0.33985368    -0.05900
C401        C  0.99466698  0.80494779  0.35883841     0.00000
C402        C  0.46107447  0.78068574  0.37495041    -0.08400
C403        C  0.42305299  0.80086602  0.39349659     0.62000
H404        H  0.43791715  0.71750632  0.38627747     0.12600
H405        H  0.05245992  0.80318023  0.32738577     0.12700
C406        C  0.06556006  0.71893751  0.31809960     0.62200
F407        F  0.38998458  0.77217700  0.39801747    -0.23000
F408        F  0.40839312  0.83386483  0.37113540    -0.20300
F409        F  0.43417008  0.81575891  0.42907652    -0.20000
F410        F  0.05133630  0.69847397  0.28580307    -0.20000
F411        F  0.08437549  0.69006130  0.34245604    -0.20400
F412        F  0.09617664  0.74817256  0.30712577    -0.23000
N413        N  0.96403620  0.50952612  0.44519363    -0.36700
N414        N  0.96075774  0.44057826  0.49977505    -0.57300
N415        N  0.46373684  0.00980591  0.55257448    -0.36700
N416        N  0.46219479  0.07882162  0.49797899    -0.57300
C417        C  0.95371738  0.47452856  0.42535522     0.26900
C418        C  0.95019980  0.04305675  0.42481936     0.26900
C419        C  0.44877155  0.47613667  0.57244965     0.26900
C420        C  0.45285895  0.04466045  0.57183096     0.26900
C421        C  0.97676426  0.42002155  0.46982944     0.35500
C422        C  0.97341030  0.41991636  0.53145081     0.35500
C423        C  0.47557641  0.09949660  0.46648184     0.35500
C424        C  0.47845392  0.09922982  0.52837425     0.35500
C425        C  0.93107508  0.48546619  0.39301261    -0.22000
C426        C  0.92813171  0.02883559  0.39300667    -0.23000
C427        C  0.42567309  0.48991656  0.60330882    -0.22000
C428        C  0.42875081  0.03337920  0.60315506    -0.22000
C429        C  0.99848248  0.38467365  0.48224789    -0.23000
C430        C  0.99643331  0.38461011  0.52153657    -0.23000
C431        C  0.49952569  0.13466982  0.47688831    -0.23000
C432        C  0.50139228  0.13444001  0.51633312    -0.23000
C433        C  0.97219180  0.43493926  0.43216894    -0.18400
C434        C  0.46687374  0.08445054  0.42937902    -0.18400
C435        C  0.47246545  0.08433207  0.56602056    -0.18400
C436        C  0.96491680  0.43506276  0.56829900    -0.18400
H437        H  0.92029550  0.46456729  0.37065122     0.14500
H438        H  0.91472644  0.04795386  0.37037595     0.14500
H439        H  0.41134134  0.47055406  0.62539104     0.14500
H440        H  0.41717696  0.05414141  0.62496235     0.14500
H441        H  0.01533124  0.36221935  0.46518564     0.12800
H442        H  0.01181905  0.36213913  0.54016316     0.12800
H443        H  0.51540602  0.15718973  0.45840939     0.12800
H444        H  0.51866225  0.15680951  0.53378263     0.12800
H445        H  0.98656947  0.51073090  0.46694660     0.26100
H446        H  0.48711195  0.00886071  0.53180367     0.26100
In447      In  0.51582696  0.00748791  0.74916752     1.36900
C448        C  0.95433438  0.49506743  0.79954814     0.77500
O449        O  0.97564487  0.47206719  0.70786723    -0.61000
O450        O  0.53428905  0.44440121  0.72300005    -0.51900
C451        C  0.51758876  0.07032202  0.69738474     0.70200
O452        O  0.00050135  0.07480185  0.72938645    -0.46700
C453        C  0.58079942  0.01534403  0.79846026     0.74900
O454        O  0.95180673  0.02370167  0.77439801    -0.58600
O455        O  0.58433731  0.49494863  0.76795982    -0.48700
O456        O  0.98593820  0.47142674  0.79664333    -0.55000
C457        C  0.00185035  0.44324422  0.70187682     0.85000
O458        O  0.53723606  0.03629909  0.69394603    -0.56900
O459        O  0.54653311  0.03477305  0.80121399    -0.60200
In460      In  0.01982205  0.50839504  0.25102714     1.36900
C461        C  0.52353617  0.44687313  0.30372519     0.77500
O462        O  0.58836237  0.49739239  0.23284993    -0.61000
O463        O  0.54816053  0.03262406  0.19664798    -0.51900
C464        C  0.95641611  0.99295449  0.20281352     0.70200
O465        O  0.98728623  0.46876028  0.20778786    -0.46700
C466        C  0.00522267  0.07309585  0.29704344     0.74900
O467        O  0.00582423  0.44144226  0.27196784    -0.58600
O468        O  0.53518674  0.07478605  0.27341798    -0.48700
O469        O  0.54322975  0.48153683  0.30669620    -0.55000
C470        C  0.58327062  0.51499950  0.20078045     0.85000
O471        O  0.95577656  0.02434807  0.22471727    -0.56900
O472        O  0.98138489  0.04112656  0.29395568    -0.60200
C473        C  0.49741795  0.35166545  0.36206044     0.80100
N474        N  0.48687219  0.37046275  0.39525899    -0.78200
C475        C  0.49053623  0.41290728  0.39911056     0.82600
N476        N  0.50711879  0.43630797  0.37014158    -0.78100
C477        C  0.51690813  0.41840902  0.33652088     0.82700
N478        N  0.51137589  0.37597094  0.33225929    -0.79800
N479        N  0.52127175  0.47008757  0.94711883    -0.36700
N480        N  0.58937224  0.47755249  0.00022388    -0.57300
N481        N  0.52216744  0.46765566  0.05464437    -0.36700
N482        N  0.95310206  0.45667116  0.00156942    -0.57300
C483        C  0.55649607  0.46181001  0.92714024     0.26900
C484        C  0.98861861  0.45104236  0.92896061     0.26900
C485        C  0.55818291  0.46021926  0.07427432     0.26900
C486        C  0.99025736  0.44901441  0.07424213     0.26900
C487        C  0.60928007  0.49305141  0.96922874     0.35500
C488        C  0.60966831  0.49266279  0.03107367     0.35500
C489        C  0.93126802  0.46999748  0.97083956     0.35500
C490        C  0.93173783  0.46840696  0.03264749     0.35500
C491        C  0.54665382  0.43532957  0.89712629    -0.22000
C492        C  0.00371876  0.42804376  0.89856356    -0.22000
C493        C  0.54957445  0.43453158  0.10548574    -0.22000
C494        C  0.00666554  0.42699134  0.10521893    -0.22000
C495        C  0.64374221  0.51765146  0.98027662    -0.23000
C496        C  0.64398256  0.51740629  0.01982648    -0.23000
C497        C  0.89474662  0.49000861  0.98229950    -0.23000
C498        C  0.89502821  0.48894365  0.02179633    -0.23000
C499        C  0.59515249  0.48379481  0.93200698    -0.18400
C500        C  0.94624648  0.46364051  0.93361182    -0.18400
C501        C  0.94741215  0.46066982  0.06968809    -0.18400
C502        C  0.59634682  0.48285051  0.06842158    -0.18400
H503        H  0.56784004  0.42445484  0.87532552     0.14500
H504        H  0.98516660  0.41083375  0.87771680     0.14500
H505        H  0.57157911  0.42454622  0.12739374     0.14500
H506        H  0.98908610  0.41021439  0.12708271     0.14500
H507        H  0.66589694  0.53430746  0.96202360     0.12800
H508        H  0.66641084  0.53377044  0.03799715     0.12800
H509        H  0.87111164  0.50490089  0.96453610     0.12800
H510        H  0.87171609  0.50291411  0.04003131     0.12800
H511        H  0.51853494  0.49380048  0.96738607     0.26100
H512        H  0.51862199  0.49081165  0.03357229     0.26100
C513        C  0.86132838  0.97624087  0.14133704     0.80100
N514        N  0.88076875  0.96856406  0.10749382    -0.78200
C515        C  0.92363084  0.97043740  0.10500152     0.82600
N516        N  0.94639452  0.98057756  0.13634312    -0.78100
C517        C  0.92806155  0.98737620  0.17011266     0.82700
N518        N  0.88525620  0.98598460  0.17271239    -0.79800
C519        C  0.99605585  0.16868868  0.35789930     0.80100
N520        N  0.00403684  0.14447789  0.32676607    -0.78200
C521        C  0.00050715  0.10168526  0.32945629     0.82600
N522        N  0.99008402  0.08369885  0.36310716    -0.78100
C523        C  0.98112518  0.10701307  0.39406877     0.82700
N524        N  0.98402615  0.14972607  0.39127474    -0.79800
C525        C  0.67918239  0.49379101  0.14303525     0.80100
N526        N  0.65445399  0.50224458  0.17372212    -0.78200
C527        C  0.61291357  0.51159498  0.16863133     0.82600
N528        N  0.59620218  0.51051999  0.13305813    -0.78100
C529        C  0.61929683  0.49769925  0.10290582     0.82700
N530        N  0.66102067  0.48997721  0.10793966    -0.79800
C531        C  0.86009070  0.48589089  0.86237665     0.80100
N532        N  0.88377926  0.49397114  0.83063116    -0.78200
C533        C  0.92657759  0.49169416  0.83273527     0.82600
N534        N  0.94517374  0.48361075  0.86650196    -0.78100
C535        C  0.92253617  0.47553057  0.89831657     0.82700
N536        N  0.87969356  0.47697972  0.89621563    -0.79800
C537        C  0.99075038  0.34961230  0.63847114     0.80100
N538        N  0.98091621  0.36975658  0.60532894    -0.78200
C539        C  0.97809823  0.41231521  0.60363648     0.82600
N540        N  0.98645286  0.43481021  0.63542278    -0.78100
C541        C  0.99694348  0.41576062  0.66863316     0.82700
N542        N  0.99990093  0.37284344  0.67024215    -0.79800
C543        C  0.49960238  0.16668670  0.63799090     0.80100
N544        N  0.50840252  0.14170810  0.66882196    -0.78200
C545        C  0.51131152  0.09915971  0.66473874     0.82600
N546        N  0.50301023  0.08179765  0.63035674    -0.78100
C547        C  0.49022032  0.10584141  0.60028447     0.82700
N548        N  0.48934577  0.14841685  0.60408605    -0.79800
C549        C  0.67778700  0.00000495  0.85801433     0.80100
N550        N  0.65957192  0.99433887  0.89279717    -0.78200
C551        C  0.61727066  0.99859644  0.89695952     0.82600
N552        N  0.59357852  0.00969620  0.86619503    -0.78100
C553        C  0.61055387  0.01271124  0.83096121     0.82700
N554        N  0.65287050  0.00695544  0.82668617    -0.79800
C555        C  0.52318736  0.28272419  0.66067835    -0.05900
C556        C  0.99115500  0.30266646  0.63958157     0.00100
C557        C  0.96104226  0.27747240  0.61942278    -0.08500
C558        C  0.96460990  0.23333046  0.62108569    -0.05900
C559        C  0.49717004  0.21336221  0.64132354     0.00000
C560        C  0.52729747  0.23837751  0.66143248    -0.08400
C561        C  0.56476838  0.21887534  0.68201749     0.62000
H562        H  0.54590893  0.30237871  0.67571884     0.12600
H563        H  0.94200438  0.21376041  0.60582092     0.12700
C564        C  0.92481604  0.29630225  0.59634163     0.62200
F565        F  0.59306825  0.24933819  0.69496183    -0.23000
F566        F  0.58627358  0.19277574  0.65761105    -0.20300
F567        F  0.55090208  0.19570498  0.71314061    -0.20000
F568        F  0.94025890  0.31549999  0.56370761    -0.20000
F569        F  0.90356006  0.32553895  0.61785214    -0.20400
F570        F  0.89571446  0.26575465  0.58508509    -0.23000
C571        C  0.79504575  0.02153893  0.84022886    -0.05900
C572        C  0.81325150  0.48745665  0.85999222     0.00100
C573        C  0.78655133  0.45606173  0.87662733    -0.08500
C574        C  0.74248685  0.46051616  0.87332376    -0.05900
C575        C  0.72426767  0.99538436  0.85486014     0.00000
C576        C  0.75088932  0.02667427  0.83806565    -0.08400
C577        C  0.73310178  0.06657736  0.82012563     0.62000
H578        H  0.81591250  0.04513359  0.82765186     0.12600
H579        H  0.72162901  0.43720765  0.88635264     0.12700
C580        C  0.80402555  0.41806406  0.89803315     0.62200
F581        F  0.76477441  0.09468245  0.80914211    -0.23000
F582        F  0.70776720  0.08680435  0.84603605    -0.20300
F583        F  0.70949787  0.05647750  0.78821081    -0.20000
F584        F  0.82106842  0.43092754  0.93239209    -0.20000
F585        F  0.83487416  0.39885625  0.87673119    -0.20400
F586        F  0.77287729  0.38806542  0.90565769    -0.23000
C587        C  0.79642730  0.00961517  0.16539876    -0.05900
C588        C  0.81438996  0.97757875  0.14351860     0.00100
C589        C  0.78732071  0.44842501  0.12466061    -0.08500
C590        C  0.74333349  0.45435046  0.12620861    -0.05900
C591        C  0.72545799  0.48724466  0.14706994     0.00000
C592        C  0.75235654  0.01468862  0.16790670    -0.08400
C593        C  0.73500792  0.05001748  0.19202386     0.62000
H594        H  0.81741398  0.03132266  0.18015943     0.12600
H595        H  0.72233991  0.43327703  0.11069802     0.12700
C596        C  0.80418867  0.41024508  0.10393077     0.62200
F597        F  0.76687205  0.07555677  0.20674280    -0.23000
F598        F  0.71274440  0.03281422  0.22227194    -0.20300
F599        F  0.70861289  0.07529585  0.17036544    -0.20000
F600        F  0.83352001  0.38962718  0.12654313    -0.20000
F601        F  0.82288139  0.42289138  0.07020536    -0.20400
F602        F  0.77226191  0.38143897  0.09533298    -0.23000
C603        C  0.96284224  0.23641503  0.37323407    -0.05900
C604        C  0.99604006  0.21554868  0.35527852     0.00100
C605        C  0.52870925  0.23970074  0.33771992    -0.08500
C606        C  0.52737072  0.28416587  0.33984470    -0.05900
C607        C  0.49475791  0.30492893  0.35887940     0.00000
C608        C  0.96119796  0.28068946  0.37502669    -0.08400
C609        C  0.92323391  0.30087013  0.39366932     0.62000
H610        H  0.93800490  0.21751633  0.38632167     0.12600
H611        H  0.55250389  0.30314862  0.32735391     0.12700
C612        C  0.56555951  0.21889726  0.31803350     0.62200
F613        F  0.89017080  0.27218934  0.39826170    -0.23000
F614        F  0.90851700  0.33388096  0.37135444    -0.20300
F615        F  0.93445791  0.31574215  0.42923066    -0.20000
F616        F  0.55129520  0.19847552  0.28572913    -0.20000
F617        F  0.58436607  0.18998077  0.34235730    -0.20400
F618        F  0.59619410  0.24811610  0.30706749    -0.23000
N619        N  0.96405484  0.00952909  0.44518652    -0.36700
N620        N  0.96081254  0.94059593  0.49977598    -0.57300
N621        N  0.46363979  0.50978913  0.55257256    -0.36700
N622        N  0.46213152  0.57881517  0.49798421    -0.57300
C623        C  0.95372738  0.97453191  0.42535132     0.26900
C624        C  0.95018050  0.54305401  0.42482634     0.26900
C625        C  0.44886401  0.97615793  0.57245541     0.26900
C626        C  0.45274957  0.54464080  0.57182754     0.26900
C627        C  0.97679021  0.92002811  0.46982411     0.35500
C628        C  0.97346691  0.91992704  0.53144754     0.35500
C629        C  0.47555111  0.59948212  0.46649649     0.35500
C630        C  0.47839030  0.59920645  0.52838777     0.35500
C631        C  0.93108065  0.98547007  0.39301122    -0.22000
C632        C  0.92812113  0.52883192  0.39300935    -0.23000
C633        C  0.42577789  0.98994608  0.60331969    -0.22000
C634        C  0.42863327  0.53335126  0.60314484    -0.22000
C635        C  0.99849475  0.88466837  0.48223484    -0.23000
C636        C  0.99646375  0.88460659  0.52152562    -0.23000
C637        C  0.49952987  0.63462985  0.47691523    -0.23000
C638        C  0.50137325  0.63439399  0.51636037    -0.23000
C639        C  0.97219578  0.93494019  0.43216383    -0.18400
C640        C  0.46685564  0.58444883  0.42939071    -0.18400
C641        C  0.47236289  0.58431293  0.56602916    -0.18400
C642        C  0.96498944  0.93507452  0.56829828    -0.18400
H643        H  0.92029523  0.96457138  0.37065179     0.14500
H644        H  0.91471705  0.54795003  0.37037798     0.14500
H645        H  0.41144302  0.97058899  0.62540401     0.14500
H646        H  0.41705043  0.55410897  0.62495155     0.14500
H647        H  0.01531555  0.86220087  0.46516383     0.12800
H648        H  0.01183733  0.86212367  0.54014907     0.12800
H649        H  0.51544554  0.65713224  0.45844335     0.12800
H650        H  0.51865916  0.65674232  0.53381912     0.12800
H651        H  0.98659380  0.01073274  0.46693465     0.26100
H652        H  0.48702383  0.50884922  0.53180965     0.26100
In653      In  0.51581745  0.50746284  0.74916009     1.36900
C654        C  0.95433899  0.99512298  0.79957359     0.77500
O655        O  0.97568630  0.97213320  0.70781665    -0.61000
O656        O  0.53425078  0.94437356  0.72306323    -0.51900
C657        C  0.51753723  0.57029953  0.69738224     0.70200
O658        O  0.00048301  0.57478173  0.72940046    -0.46700
C659        C  0.58078557  0.51532070  0.79846004     0.74900
O660        O  0.95180321  0.52366021  0.77438560    -0.58600
O661        O  0.58434506  0.99496339  0.76796394    -0.48700
O662        O  0.98594485  0.97148492  0.79667486    -0.55000
C663        C  0.00185426  0.94326042  0.70188272     0.85000
O664        O  0.53716917  0.53627103  0.69392361    -0.56900
O665        O  0.54650967  0.53473132  0.80122038    -0.60200
In666      In  0.01982463  0.00836151  0.25099782     1.36900
C667        C  0.52349671  0.94686097  0.30370411     0.77500
O668        O  0.58833590  0.99723384  0.23281233    -0.61000
O669        O  0.54809807  0.53264768  0.19665957    -0.51900
C670        C  0.95640342  0.49300765  0.20284990     0.70200
O671        O  0.98729973  0.96871137  0.20776442    -0.46700
C672        C  0.00520473  0.57311649  0.29707194     0.74900
O673        O  0.00570635  0.94146141  0.27197887    -0.58600
O674        O  0.53514840  0.57482617  0.27342291    -0.48700
O675        O  0.54328061  0.98147882  0.30664218    -0.55000
C676        C  0.58329031  0.01488529  0.20075707     0.85000
O677        O  0.95576011  0.52438167  0.22477589    -0.56900
O678        O  0.98139265  0.54112476  0.29400696    -0.60200
C679        C  0.49731567  0.85167167  0.36202154     0.80100
N680        N  0.48680054  0.87046322  0.39523112    -0.78200
C681        C  0.49052895  0.91290177  0.39910015     0.82600
N682        N  0.50712815  0.93629703  0.37013360    -0.78100
C683        C  0.51687373  0.91840144  0.33650076     0.82700
N684        N  0.51128721  0.87597389  0.33222600    -0.79800
N685        N  0.52123218  0.97005797  0.94710619    -0.36700
N686        N  0.58933024  0.97744341  0.00021038    -0.57300
N687        N  0.52214616  0.96742461  0.05463766    -0.36700
N688        N  0.95307001  0.95649127  0.00156704    -0.57300
C689        C  0.55645356  0.96179718  0.92711892     0.26900
C690        C  0.98858379  0.95098537  0.92895367     0.26900
C691        C  0.55816327  0.96001403  0.07427608     0.26900
C692        C  0.99023640  0.94878517  0.07424914     0.26900
C693        C  0.60923927  0.99297970  0.96922957     0.35500
C694        C  0.60963747  0.99250381  0.03107295     0.35500
C695        C  0.93122084  0.96983687  0.97085128     0.35500
C696        C  0.93169647  0.96817021  0.03265816     0.35500
C697        C  0.54661808  0.93531696  0.89710405    -0.22000
C698        C  0.00368249  0.92800599  0.89854507    -0.22000
C699        C  0.54955331  0.93435857  0.10550929    -0.22000
C700        C  0.00664825  0.92680113  0.10524702    -0.22000
C701        C  0.64371050  0.01755345  0.98029825    -0.23000
C702        C  0.64395698  0.01725306  0.01984713    -0.23000
C703        C  0.89467506  0.98978744  0.98233320    -0.23000
C704        C  0.89496002  0.98867360  0.02182785    -0.23000
C705        C  0.59511069  0.98376999  0.93200021    -0.18400
C706        C  0.94621233  0.96356249  0.93361554    -0.18400
C707        C  0.94738693  0.96043331  0.06969431    -0.18400
C708        C  0.59632892  0.98264577  0.06841507    -0.18400
H709        H  0.56780590  0.92444954  0.87530162     0.14500
H710        H  0.98512918  0.91079329  0.87770089     0.14500
H711        H  0.57155519  0.92440215  0.12743044     0.14500
H712        H  0.98907090  0.91005244  0.12712934     0.14500
H713        H  0.66586850  0.03422554  0.96205995     0.12800
H714        H  0.66639525  0.03358328  0.03803253     0.12800
H715        H  0.87102169  0.00467629  0.96458793     0.12800
H716        H  0.87163132  0.00259665  0.04007521     0.12800
H717        H  0.51848830  0.99376516  0.96737841     0.26100
H718        H  0.51859742  0.99056212  0.03355056     0.26100
C719        C  0.86133212  0.47643000  0.14132043     0.80100
N720        N  0.88078172  0.46880661  0.10747004    -0.78200
C721        C  0.92364644  0.47065041  0.10499597     0.82600
N722        N  0.94640360  0.48071529  0.13636165    -0.78100
C723        C  0.92806115  0.48746736  0.17013489     0.82700
N724        N  0.88525560  0.48609823  0.17271763    -0.79800
C725        C  0.99603822  0.66870432  0.35792816     0.80100
N726        N  0.00402223  0.64449546  0.32679519    -0.78200
C727        C  0.00049115  0.60170378  0.32948316     0.82600
N728        N  0.99006971  0.58371483  0.36313180    -0.78100
C729        C  0.98110457  0.60702465  0.39409277     0.82700
N730        N  0.98400220  0.64973996  0.39130228    -0.79800
C731        C  0.67917656  0.99352418  0.14302452     0.80100
N732        N  0.65446096  0.00203494  0.17370696    -0.78200
C733        C  0.61293074  0.01142876  0.16860984     0.82600
N734        N  0.59622051  0.01035090  0.13303659    -0.78100
C735        C  0.61929845  0.99747122  0.10289471     0.82700
N736        N  0.66101105  0.98968792  0.10793390    -0.79800
C737        C  0.86008226  0.98591109  0.86239224     0.80100
N738        N  0.88377478  0.99401992  0.83065289    -0.78200
C739        C  0.92657530  0.99175182  0.83276145     0.82600
N740        N  0.94516476  0.98363885  0.86652682    -0.78100
C741        C  0.92251927  0.97551911  0.89833076     0.82700
N742        N  0.87968030  0.97697052  0.89622448    -0.79800
C743        C  0.99075424  0.84961015  0.63848501     0.80100
N744        N  0.98094232  0.86975387  0.60533488    -0.78200
C745        C  0.97815760  0.91231633  0.60363535     0.82600
N746        N  0.98651749  0.93481084  0.63542043    -0.78100
C747        C  0.99696586  0.91576362  0.66864155     0.82700
N748        N  0.99989681  0.87284324  0.67025869    -0.79800
C749        C  0.49957454  0.66666992  0.63798385     0.80100
N750        N  0.50837450  0.64169096  0.66881582    -0.78200
C751        C  0.51123345  0.59913642  0.66474149     0.82600
N752        N  0.50288628  0.58177033  0.63037076    -0.78100
C753        C  0.49010943  0.60581731  0.60029804     0.82700
N754        N  0.48928045  0.64839665  0.60408854    -0.79800
C755        C  0.67780095  0.50004660  0.85799344     0.80100
N756        N  0.65959853  0.49438298  0.89278268    -0.78200
C757        C  0.61729550  0.49861634  0.89695447     0.82600
N758        N  0.59358817  0.50969258  0.86619281    -0.78100
C759        C  0.61055125  0.51270634  0.83095419     0.82700
N760        N  0.65287085  0.50697507  0.82666980    -0.79800
C761        C  0.52319160  0.78271140  0.66066893    -0.05900
C762        C  0.99115136  0.80266188  0.63959715     0.00100
C763        C  0.96102229  0.77747391  0.61945361    -0.08500
C764        C  0.96459469  0.73333034  0.62109436    -0.05900
C765        C  0.49716031  0.71335089  0.64131262     0.00000
C766        C  0.52730147  0.73836286  0.66141090    -0.08400
C767        C  0.56478990  0.71885779  0.68196704     0.62000
H768        H  0.54592537  0.80236294  0.67569779     0.12600
H769        H  0.94197877  0.71376842  0.60583337     0.12700
C770        C  0.92476746  0.79631520  0.59641943     0.62200
F771        F  0.59308629  0.74932046  0.69491825    -0.23000
F772        F  0.58628945  0.69278543  0.65753307    -0.20300
F773        F  0.55095112  0.69565886  0.71308276    -0.20000
F774        F  0.94016444  0.81549278  0.56375793    -0.20000
F775        F  0.90356830  0.82557382  0.61795143    -0.20400
F776        F  0.89562729  0.76577773  0.58521924    -0.23000
C777        C  0.79506777  0.52153000  0.84019357    -0.05900
C778        C  0.81324292  0.98746449  0.86001459     0.00100
C779        C  0.78655478  0.95606273  0.87665816    -0.08500
C780        C  0.74248837  0.96050604  0.87336422    -0.05900
C781        C  0.72427884  0.49540483  0.85482457     0.00000
C782        C  0.75091320  0.52668339  0.83802825    -0.08400
C783        C  0.73314473  0.56660075  0.82009801     0.62000
H784        H  0.81594455  0.54511543  0.82761618     0.12600
H785        H  0.72163905  0.93719228  0.88639652     0.12700
C786        C  0.80404277  0.91806355  0.89805497     0.62200
F787        F  0.76483202  0.59467565  0.80908570    -0.23000
F788        F  0.70785768  0.58685292  0.84602952    -0.20300
F789        F  0.70949743  0.55652236  0.78820338    -0.20000
F790        F  0.82110054  0.93092111  0.93240990    -0.20000
F791        F  0.83488225  0.89886102  0.87673833    -0.20400
F792        F  0.77290141  0.88806110  0.90568937    -0.23000
C793        C  0.79643216  0.50961509  0.16560682    -0.05900
C794        C  0.81439018  0.47776144  0.14350602     0.00100
C795        C  0.78733149  0.94807332  0.12487441    -0.08500
C796        C  0.74333777  0.95398505  0.12639448    -0.05900
C797        C  0.72545678  0.98703232  0.14705475     0.00000
C798        C  0.75236369  0.51469734  0.16813407    -0.08400
C799        C  0.73503537  0.54983358  0.19249074     0.62000
H800        H  0.81742171  0.53118703  0.18052154     0.12600
H801        H  0.72234337  0.93277430  0.11103534     0.12700
C802        C  0.80423079  0.90971805  0.10442736     0.62200
F803        F  0.76691846  0.57516591  0.20746163    -0.23000
F804        F  0.71266907  0.53240118  0.22257460    -0.20300
F805        F  0.70874646  0.57536654  0.17097326    -0.20000
F806        F  0.83347740  0.88925792  0.12724796    -0.20000
F807        F  0.82304169  0.92208001  0.07067453    -0.20400
F808        F  0.77230921  0.88087047  0.09592760    -0.23000
C809        C  0.96275746  0.73641906  0.37319586    -0.05900
C810        C  0.99599881  0.71556203  0.35529398     0.00100
C811        C  0.52866268  0.73972134  0.33773110    -0.08500
C812        C  0.52730243  0.78418470  0.33983794    -0.05900
C813        C  0.49466146  0.80494019  0.35883624     0.00000
C814        C  0.96107240  0.78069468  0.37494087    -0.08400
C815        C  0.92304025  0.80087727  0.39346722     0.62000
H816        H  0.93791188  0.71751583  0.38626619     0.12600
H817        H  0.55244001  0.80317389  0.32736202     0.12700
C818        C  0.56553551  0.71893207  0.31806598     0.62200
F819        F  0.88996748  0.77218997  0.39797064    -0.23000
F820        F  0.90839630  0.83387716  0.37109851    -0.20300
F821        F  0.93413571  0.81576971  0.42905256    -0.20000
F822        F  0.55129776  0.69847020  0.28577338    -0.20000
F823        F  0.58436183  0.69005475  0.34241439    -0.20400
F824        F  0.59614710  0.74816787  0.30708256    -0.23000
loop_ 
_geom_bond_atom_site_label_1 
_geom_bond_atom_site_label_2 
_geom_bond_distance 
_geom_bond_site_symmetry_2 
_ccdc_geom_bond_type 
N1           H33   1.043       .  S
N1            C5   1.349       .  A
N1          C212   1.350       .  A
N2            C9   1.347       .  A
N2           C10   1.347       .  A
N3           H34   1.043       .  S
N3            C8   1.348       .  A
N3          C213   1.349   1_545  A
N4           C11   1.349       .  A
N4           C12   1.349       .  A
C5           C13   1.384       .  A
C5           C21   1.406       .  A
C6          N207   1.350       .  A
C6           C14   1.390       .  A
C6          C434   1.415       .  A
C7          N209   1.349       .  A
C7           C15   1.388       .  A
C7          C436   1.411       .  A
C8           C23   1.406       .  A
C8           C16   1.385       .  A
C9           C21   1.409       .  A
C9           C17   1.385       .  A
C10          C24   1.414       .  A
C10          C18   1.389       .  A
C11          C19   1.388       .  A
C11          C22   1.417       .  A
C12          C20   1.386   1_655  A
C12          C23   1.414       .  A
C13         C220   1.376       .  A
C13          H25   1.083       .  S
C14         C219   1.376   1_545  A
C14          H26   1.083       .  S
C15         C222   1.375       .  A
C15          H27   1.083       .  S
C16         C221   1.375   1_545  A
C16          H28   1.083       .  S
C17          C18   1.384       .  A
C17          H29   1.081       .  S
C18          H30   1.080       .  S
C19          C20   1.388   1_655  A
C19          H31   1.081   1_655  S
C20          H32   1.081       .  S
C21         C475   1.485       .  S
C22         C418   1.415       .  A
C22         C523   1.495       .  S
C23         C135   1.492       .  S
C24         C419   1.411       .  A
C24         C127   1.490       .  S
In35         O46   2.242       .  S
In35         O47   2.241       .  S
In35        O655   2.225   1_445  S
In35        O244   2.288   1_545  S
In35        O452   2.290       .  S
In35        O454   2.281   1_455  S
In35        O249   2.300   1_545  S
In35        O662   2.222   1_445  S
C36         C121   1.467       .  S
C36          O44   1.261       .  A
C36         O248   1.262       .  A
O37        In653   2.225       .  S
O37          C45   1.260       .  A
O38        In241   2.288       .  S
O38         C457   1.263       .  A
C39         C133   1.474       .  S
C39          O46   1.256       .  A
C39         O452   1.261       .  A
O40        In447   2.290       .  S
O40         C451   1.261       .  A
C41         C141   1.478       .  S
C41          O47   1.257       .  A
C41         O249   1.263   1_545  A
O42        In447   2.282       .  S
O42         C242   1.262   1_545  A
O43        In241   2.300       .  S
O43         C247   1.263       .  A
O44        In653   2.222       .  S
C45         C129   1.469       .  S
C45         O450   1.263       .  A
In48         O53   2.219       .  S
In48         O55   2.274       .  S
In48        O462   2.295       .  S
In48        O669   2.241       .  S
In48        O265   2.282       .  S
In48        O674   2.296       .  S
In48        O469   2.252       .  S
In48        O266   2.217       .  S
C49          C65   1.471       .  S
C49          O57   1.259       .  A
C49         O467   1.259       .  A
O50        In460   2.295       .  S
O50          C58   1.263       .  A
O51        In666   2.241       .  S
O51         C264   1.258       .  A
C52         C105   1.465       .  S
C52          O59   1.263   1_565  A
C52         O259   1.259       .  A
O53         C258   1.259       .  A
C54         C109   1.471       .  S
C54          O60   1.259       .  A
C54         O468   1.264       .  A
O55         C461   1.259       .  A
O56        In666   2.296       .  S
O56         C466   1.264       .  A
O57        In460   2.252       .  S
C58         C115   1.479       .  S
C58         O257   1.258       .  A
O59        In254   2.282       .  S
O60        In254   2.217       .  S
C61          N62   1.360       .  A
C61          N66   1.366   1_655  A
C61         C195   1.484       .  S
N62          C63   1.354       .  A
C63          N64   1.358   1_655  A
C63         C433   1.485       .  S
N64          C65   1.355       .  A
C65          N66   1.361       .  A
N67          H99   1.044       .  S
N67          C71   1.350       .  A
N67         C484   1.350   1_455  A
N68          C75   1.347   1_554  A
N68          C76   1.346       .  A
N69         H100   1.044       .  S
N69          C73   1.350       .  A
N69         C486   1.352   1_455  A
N70          C77   1.346   1_554  A
N70          C78   1.346       .  A
C71          C79   1.385       .  A
C71          C87   1.409       .  A
C72         N479   1.350       .  A
C72          C88   1.414       .  A
C72          C80   1.389       .  A
C73          C81   1.386       .  A
C73          C90   1.411       .  A
C74         N481   1.352       .  A
C74          C89   1.416       .  A
C74          C82   1.389       .  A
C75          C87   1.413       .  A
C75          C83   1.387       .  A
C76          C90   1.412       .  A
C76          C84   1.387       .  A
C77          C85   1.388       .  A
C77          C88   1.412       .  A
C78          C86   1.387       .  A
C78          C89   1.411       .  A
C79         C492   1.376       .  A
C79          H91   1.083       .  S
C80         C491   1.376       .  A
C80          H92   1.083       .  S
C81         C494   1.375       .  A
C81          H93   1.083       .  S
C82         C493   1.375       .  A
C82          H94   1.083       .  S
C83          C84   1.391   1_556  A
C83          H95   1.082       .  S
C84          H96   1.082       .  S
C85          C86   1.389   1_556  A
C85          H97   1.081       .  S
C86          H98   1.081       .  S
C87         C345   1.490       .  S
C88         C123   1.494       .  S
C89         C309   1.494       .  S
C90         C117   1.486       .  S
C101        N102   1.368       .  A
C101        N106   1.369       .  A
C101        C176   1.488       .  S
N102        C103   1.359       .  A
C103        N104   1.352       .  A
C103        C295   1.494       .  S
N104        C105   1.345       .  A
C105        N106   1.358       .  A
C107        N108   1.368       .  A
C107        N112   1.367       .  A
C107        C192   1.484       .  S
N108        C109   1.359       .  A
C109        N110   1.349       .  A
N110        C111   1.354       .  A
C111        N112   1.355       .  A
C111        C434   1.495       .  S
C113        N114   1.367       .  A
C113        N118   1.364       .  A
C113        C179   1.486       .  S
N114        C115   1.361       .  A
C115        N116   1.356       .  A
N116        C117   1.359       .  A
C117        N118   1.355       .  A
C119        N120   1.369       .  A
C119        N124   1.367       .  A
C119        C160   1.485       .  S
N120        C121   1.358       .  A
C121        N122   1.346       .  A
N122        C123   1.353       .  A
C123        N124   1.358       .  A
C125        N126   1.359       .  A
C125        N130   1.370       .  A
C125        C144   1.485       .  S
N126        C127   1.351       .  A
C127        N128   1.353       .  A
N128        C129   1.351       .  A
C129        N130   1.362       .  A
C131        N132   1.365   1_655  A
C131        N136   1.365       .  A
C131        C147   1.485       .  S
N132        C133   1.359       .  A
C133        N134   1.355       .  A
N134        C135   1.359   1_455  A
C135        N136   1.355       .  A
C137        N138   1.365   1_545  A
C137        N142   1.368       .  A
C137        C163   1.484   1_545  S
N138        C139   1.355       .  A
C139        N140   1.358   1_565  A
C139        C293   1.490       .  S
N140        C141   1.355       .  A
C141        N142   1.362       .  A
C143        C148   1.410       .  A
C143        C556   1.405   1_455  A
C143        H150   1.083       .  S
C144        C145   1.424       .  A
C144        C555   1.405       .  A
C145        C146   1.402       .  A
C145        C152   1.524       .  S
C146        C559   1.402       .  A
C146        H151   1.083       .  S
C147        C148   1.420   1_655  A
C147        C558   1.402       .  A
C148        C149   1.519       .  S
C149        F153   1.385       .  S
C149        F154   1.384       .  S
C149        F155   1.382       .  S
C152        F156   1.382       .  S
C152        F157   1.383       .  S
C152        F158   1.385       .  S
C159        C164   1.409       .  A
C159        C366   1.405   1_545  A
C159        H166   1.083       .  S
C160        C161   1.420       .  A
C160        C365   1.405       .  A
C161        C162   1.406       .  A
C161        C168   1.520       .  S
C162        C369   1.404       .  A
C162        H167   1.083       .  S
C163        C164   1.418   1_565  A
C163        C368   1.404       .  A
C164        C165   1.518       .  S
C165        F169   1.385       .  S
C165        F170   1.383       .  S
C165        F171   1.382       .  S
C168        F172   1.383       .  S
C168        F173   1.383       .  S
C168        F174   1.385       .  S
C175        C176   1.405   1_545  A
C175        C180   1.408       .  A
C175        H182   1.083       .  S
C176        C383   1.420       .  A
C177        C178   1.407       .  A
C177        C382   1.420       .  A
C177        C184   1.520       .  S
C178        C179   1.405       .  A
C178        H183   1.083       .  S
C179        C386   1.418       .  A
C180        C385   1.418   1_545  A
C180        C181   1.519       .  S
C181        F185   1.384       .  S
C181        F186   1.383       .  S
C181        F187   1.383       .  S
C184        F188   1.384       .  S
C184        F189   1.382       .  S
C184        F190   1.385       .  S
C191        C192   1.403       .  A
C191        C196   1.404       .  A
C191        H198   1.083       .  S
C192        C605   1.418       .  A
C193        C194   1.410       .  A
C193        C604   1.418   1_455  A
C193        C200   1.519       .  S
C194        C195   1.406   1_455  A
C194        H199   1.083       .  S
C195        C608   1.420       .  A
C196        C607   1.420       .  A
C196        C197   1.522       .  S
C197        F201   1.385       .  S
C197        F202   1.384       .  S
C197        F203   1.383       .  S
C200        F204   1.382       .  S
C200        F205   1.384       .  S
C200        F206   1.384       .  S
N207        H239   1.043       .  S
N207        C211   1.349   1_545  A
N208        C215   1.347       .  A
N208        C216   1.347       .  A
N209        H240   1.043       .  S
N209        C214   1.348       .  A
N210        C217   1.349       .  A
N210        C218   1.349       .  A
C211        C219   1.384       .  A
C211        C227   1.406       .  A
C212        C640   1.416       .  A
C212        C220   1.390       .  A
C213        C221   1.388       .  A
C213        C642   1.411       .  A
C214        C229   1.406       .  A
C214        C222   1.385       .  A
C215        C227   1.409       .  A
C215        C223   1.385       .  A
C216        C230   1.414       .  A
C216        C224   1.389       .  A
C217        C225   1.388       .  A
C217        C228   1.417       .  A
C218        C226   1.386   1_655  A
C218        C229   1.414       .  A
C219        H231   1.083       .  S
C220        H232   1.083       .  S
C221        H233   1.083       .  S
C222        H234   1.083       .  S
C223        C224   1.384       .  A
C223        H235   1.081       .  S
C224        H236   1.080       .  S
C225        C226   1.388   1_655  A
C225        H237   1.081   1_655  S
C226        H238   1.081       .  S
C227        C681   1.485       .  S
C228        C624   1.416       .  A
C228        C729   1.495       .  S
C229        C341   1.492       .  S
C230        C625   1.411       .  A
C230        C333   1.490       .  S
In241       O449   2.225   1_455  S
In241       O252   2.242       .  S
In241       O658   2.290       .  S
In241       O660   2.281   1_455  S
In241       O456   2.222   1_455  S
In241       O253   2.241       .  S
C242        C327   1.467       .  S
C242        O250   1.261       .  A
O243       In447   2.225   1_565  S
O243        C251   1.260       .  A
O244        C663   1.263       .  A
C245        C339   1.474       .  S
C245        O252   1.256       .  A
C245        O658   1.261       .  A
O246       In653   2.290       .  S
O246        C657   1.261       .  A
C247        C347   1.478       .  S
C247        O253   1.257       .  A
O248       In653   2.281       .  S
O250       In447   2.222   1_565  S
C251        C335   1.470       .  S
C251        O656   1.263       .  A
In254       O668   2.295   1_545  S
In254       O463   2.241       .  S
In254       O259   2.219   1_545  S
In254       O261   2.274   1_545  S
In254       O468   2.296       .  S
In254       O675   2.252   1_545  S
C255        C271   1.471       .  S
C255        O673   1.259       .  A
C255        O263   1.259       .  A
O256       In666   2.295   1_565  S
O256        C264   1.263   1_565  A
O257       In460   2.241       .  S
C258        C311   1.465       .  S
C258        O265   1.263       .  A
C260        C315   1.471       .  S
C260        O674   1.264       .  A
C260        O266   1.259       .  A
O261        C667   1.259       .  A
O262       In460   2.296       .  S
O262        C672   1.264       .  A
O263       In666   2.252   1_565  S
C264        C321   1.479       .  S
C267        N268   1.360       .  A
C267        N272   1.366   1_655  A
C267        C401   1.484       .  S
N268        C269   1.354       .  A
C269        N270   1.358   1_655  A
C269        C639   1.485       .  S
N270        C271   1.355       .  A
C271        N272   1.361       .  A
N273        H305   1.044       .  S
N273        C690   1.349   1_455  A
N273        C277   1.350       .  A
N274        C281   1.347   1_554  A
N274        C282   1.346       .  A
N275        H306   1.043       .  S
N275        C692   1.352   1_455  A
N275        C279   1.350       .  A
N276        C283   1.346   1_554  A
N276        C284   1.346       .  A
C277        C285   1.385       .  A
C277        C293   1.409       .  A
C278        N685   1.349       .  A
C278        C294   1.413       .  A
C278        C286   1.389       .  A
C279        C287   1.386       .  A
C279        C296   1.411       .  A
C280        N687   1.352       .  A
C280        C295   1.416       .  A
C280        C288   1.389       .  A
C281        C293   1.413       .  A
C281        C289   1.387   1_565  A
C282        C296   1.412       .  A
C282        C290   1.387   1_565  A
C283        C291   1.388       .  A
C283        C294   1.412       .  A
C284        C292   1.387       .  A
C284        C295   1.411       .  A
C285        C698   1.376       .  A
C285        H297   1.083       .  S
C286        C697   1.376       .  A
C286        H298   1.083       .  S
C287        C700   1.375       .  A
C287        H299   1.083       .  S
C288        C699   1.375       .  A
C288        H300   1.083       .  S
C289        C290   1.391   1_556  A
C289        H301   1.082       .  S
C290        H302   1.082       .  S
C291        C292   1.389   1_556  A
C291        H303   1.081   1_565  S
C292        H304   1.081   1_565  S
C294        C329   1.494       .  S
C296        C323   1.486       .  S
C307        N308   1.368       .  A
C307        N312   1.369       .  A
C307        C382   1.488       .  S
N308        C309   1.359       .  A
C309        N310   1.352       .  A
N310        C311   1.345       .  A
C311        N312   1.357       .  A
C313        N314   1.368       .  A
C313        N318   1.367       .  A
C313        C398   1.484       .  S
N314        C315   1.359       .  A
C315        N316   1.349       .  A
N316        C317   1.354       .  A
C317        N318   1.355       .  A
C317        C640   1.495       .  S
C319        N320   1.367   1_565  A
C319        N324   1.364       .  A
C319        C385   1.486       .  S
N320        C321   1.361       .  A
C321        N322   1.356       .  A
N322        C323   1.359   1_545  A
C323        N324   1.355       .  A
C325        N326   1.369       .  A
C325        N330   1.367       .  A
C325        C366   1.485       .  S
N326        C327   1.358       .  A
C327        N328   1.346       .  A
N328        C329   1.353       .  A
C329        N330   1.358       .  A
C331        N332   1.359       .  A
C331        N336   1.370       .  A
C331        C350   1.485       .  S
N332        C333   1.351       .  A
C333        N334   1.353       .  A
N334        C335   1.351       .  A
C335        N336   1.362       .  A
C337        N338   1.365   1_655  A
C337        N342   1.365       .  A
C337        C353   1.485       .  S
N338        C339   1.359       .  A
C339        N340   1.355       .  A
N340        C341   1.359   1_455  A
C341        N342   1.355       .  A
C343        N344   1.365       .  A
C343        N348   1.368       .  A
C343        C369   1.484       .  S
N344        C345   1.355       .  A
C345        N346   1.358       .  A
N346        C347   1.355       .  A
C347        N348   1.362       .  A
C349        C762   1.405   1_455  A
C349        C354   1.410       .  A
C349        H356   1.083       .  S
C350        C761   1.405       .  A
C350        C351   1.424       .  A
C351        C352   1.402       .  A
C351        C358   1.524       .  S
C352        C765   1.402       .  A
C352        H357   1.083       .  S
C353        C764   1.402       .  A
C353        C354   1.420   1_655  A
C354        C355   1.519       .  S
C355        F359   1.385       .  S
C355        F360   1.384       .  S
C355        F361   1.382       .  S
C358        F362   1.382       .  S
C358        F363   1.383       .  S
C358        F364   1.385       .  S
C365        C370   1.409       .  A
C365        H372   1.083       .  S
C366        C367   1.420       .  A
C367        C368   1.406       .  A
C367        C374   1.520       .  S
C368        H373   1.083       .  S
C369        C370   1.418       .  A
C370        C371   1.518       .  S
C371        F375   1.385       .  S
C371        F376   1.383       .  S
C371        F377   1.382       .  S
C374        F378   1.383       .  S
C374        F379   1.383       .  S
C374        F380   1.385       .  S
C381        C382   1.405       .  A
C381        C386   1.408       .  A
C381        H388   1.083       .  S
C383        C384   1.408       .  A
C383        C390   1.520       .  S
C384        C385   1.405       .  A
C384        H389   1.083       .  S
C386        C387   1.519       .  S
C387        F391   1.384       .  S
C387        F392   1.383       .  S
C387        F393   1.383       .  S
C390        F394   1.384       .  S
C390        F395   1.382       .  S
C390        F396   1.385       .  S
C397        C398   1.403       .  A
C397        C402   1.404       .  A
C397        H404   1.083       .  S
C398        C811   1.418       .  A
C399        C810   1.418   1_455  A
C399        C400   1.410       .  A
C399        C406   1.519       .  S
C400        C401   1.406   1_455  A
C400        H405   1.083       .  S
C401        C814   1.420       .  A
C402        C813   1.420       .  A
C402        C403   1.521       .  S
C403        F407   1.385       .  S
C403        F408   1.384       .  S
C403        F409   1.383       .  S
C406        F410   1.382       .  S
C406        F411   1.384       .  S
C406        F412   1.384       .  S
N413        H445   1.043       .  S
N413        C624   1.350       .  A
N413        C417   1.349       .  A
N414        C421   1.347       .  A
N414        C422   1.347       .  A
N415        H446   1.043       .  S
N415        C420   1.348       .  A
N415        C625   1.349   1_545  A
N416        C423   1.349       .  A
N416        C424   1.349       .  A
C417        C425   1.384       .  A
C417        C433   1.406       .  A
C418        N619   1.350       .  A
C418        C426   1.390       .  A
C419        N621   1.349       .  A
C419        C427   1.388       .  A
C420        C435   1.406       .  A
C420        C428   1.385       .  A
C421        C433   1.409       .  A
C421        C429   1.385       .  A
C422        C436   1.414       .  A
C422        C430   1.389       .  A
C423        C431   1.388       .  A
C423        C434   1.417       .  A
C424        C432   1.386       .  A
C424        C435   1.414       .  A
C425        C632   1.376       .  A
C425        H437   1.083       .  S
C426        C631   1.376   1_545  A
C426        H438   1.083       .  S
C427        C634   1.375       .  A
C427        H439   1.083       .  S
C428        C633   1.375   1_545  A
C428        H440   1.083       .  S
C429        C430   1.384       .  A
C429        H441   1.081   1_655  S
C430        H442   1.080   1_655  S
C431        C432   1.388       .  A
C431        H443   1.081       .  S
C432        H444   1.081       .  S
C435        C547   1.492       .  S
C436        C539   1.490       .  S
In447       O656   2.288   1_545  S
In447       O458   2.242       .  S
In447       O661   2.300   1_545  S
In447       O459   2.241       .  S
C448        C533   1.467       .  S
C448        O660   1.262       .  A
C448        O456   1.261       .  A
O449        C457   1.260   1_655  A
O450       In653   2.288       .  S
C451        C545   1.474       .  S
C451        O458   1.256       .  A
C453        C553   1.478       .  S
C453        O661   1.263   1_545  A
C453        O459   1.257       .  A
O454        C654   1.262   1_545  A
O455       In653   2.300       .  S
O455        C659   1.263       .  A
C457        C541   1.469   1_455  S
In460       O677   2.282   1_455  S
In460       O465   2.219   1_455  S
In460       O467   2.274       .  S
In460       O678   2.217   1_455  S
C461        C477   1.471       .  S
C461        O469   1.259       .  A
O462        C470   1.263       .  A
O463        C676   1.258       .  A
C464        C517   1.465       .  S
C464        O471   1.263   1_565  A
C464        O671   1.259       .  A
O465        C670   1.259       .  A
C466        C521   1.471       .  S
C466        O472   1.259   1_455  A
C470        C527   1.479       .  S
C470        O669   1.258       .  A
O471       In666   2.282   1_655  S
O472       In666   2.217   1_655  S
C473        N474   1.360       .  A
C473        N478   1.366       .  A
C473        C607   1.484       .  S
N474        C475   1.354       .  A
C475        N476   1.358       .  A
N476        C477   1.355       .  A
C477        N478   1.361       .  A
N479        H511   1.044       .  S
N479        C483   1.350       .  A
N480        C487   1.347   1_554  A
N480        C488   1.346       .  A
N481        H512   1.044       .  S
N481        C485   1.350       .  A
N482        C489   1.346   1_554  A
N482        C490   1.346       .  A
C483        C491   1.385       .  A
C483        C499   1.409       .  A
C484        C500   1.414       .  A
C484        C492   1.389   1_655  A
C485        C493   1.386       .  A
C485        C502   1.411       .  A
C486        C501   1.416       .  A
C486        C494   1.389   1_655  A
C487        C499   1.413       .  A
C487        C495   1.387       .  A
C488        C502   1.412       .  A
C488        C496   1.387       .  A
C489        C497   1.388       .  A
C489        C500   1.412       .  A
C490        C498   1.387       .  A
C490        C501   1.411       .  A
C491        H503   1.083       .  S
C492        H504   1.083   1_455  S
C493        H505   1.083       .  S
C494        H506   1.083   1_455  S
C495        C496   1.391   1_556  A
C495        H507   1.082       .  S
C496        H508   1.082       .  S
C497        C498   1.389   1_556  A
C497        H509   1.081       .  S
C498        H510   1.081       .  S
C499        C757   1.490       .  S
C500        C535   1.494       .  S
C501        C721   1.494       .  S
C502        C529   1.486       .  S
C513        N514   1.368       .  A
C513        N518   1.369       .  A
C513        C588   1.488       .  S
N514        C515   1.359       .  A
C515        N516   1.352       .  A
C515        C707   1.494       .  S
N516        C517   1.345       .  A
C517        N518   1.358       .  A
C519        N520   1.368   1_655  A
C519        N524   1.367       .  A
C519        C604   1.484       .  S
N520        C521   1.359       .  A
C521        N522   1.349   1_455  A
N522        C523   1.354       .  A
C523        N524   1.355       .  A
C525        N526   1.367       .  A
C525        N530   1.364       .  A
C525        C591   1.486       .  S
N526        C527   1.361       .  A
C527        N528   1.356       .  A
N528        C529   1.359       .  A
C529        N530   1.355       .  A
C531        N532   1.369       .  A
C531        N536   1.367       .  A
C531        C572   1.485       .  S
N532        C533   1.358       .  A
C533        N534   1.346       .  A
N534        C535   1.353       .  A
C535        N536   1.358       .  A
C537        N538   1.359       .  A
C537        N542   1.370       .  A
C537        C556   1.485       .  S
N538        C539   1.351       .  A
C539        N540   1.353       .  A
N540        C541   1.351       .  A
C541        N542   1.362       .  A
C543        N544   1.365       .  A
C543        N548   1.365       .  A
C543        C559   1.485       .  S
N544        C545   1.359       .  A
C545        N546   1.355       .  A
N546        C547   1.359       .  A
C547        N548   1.355       .  A
C549        N550   1.365   1_545  A
C549        N554   1.368       .  A
C549        C575   1.484   1_545  S
N550        C551   1.355       .  A
C551        N552   1.358   1_565  A
C551        C705   1.490       .  S
N552        C553   1.355       .  A
C553        N554   1.362       .  A
C555        C560   1.410       .  A
C555        H562   1.083       .  S
C556        C557   1.424       .  A
C557        C558   1.402       .  A
C557        C564   1.524       .  S
C558        H563   1.083       .  S
C559        C560   1.420       .  A
C560        C561   1.519       .  S
C561        F565   1.385       .  S
C561        F566   1.384       .  S
C561        F567   1.382       .  S
C564        F568   1.382       .  S
C564        F569   1.383       .  S
C564        F570   1.385       .  S
C571        C778   1.405   1_545  A
C571        C576   1.409       .  A
C571        H578   1.083       .  S
C572        C777   1.405       .  A
C572        C573   1.420       .  A
C573        C574   1.406       .  A
C573        C580   1.520       .  S
C574        C781   1.404       .  A
C574        H579   1.083       .  S
C575        C780   1.404       .  A
C575        C576   1.418   1_565  A
C576        C577   1.518       .  S
C577        F581   1.385       .  S
C577        F582   1.383       .  S
C577        F583   1.382       .  S
C580        F584   1.383       .  S
C580        F585   1.383       .  S
C580        F586   1.385       .  S
C587        C588   1.405   1_545  A
C587        C592   1.408       .  A
C587        H594   1.083       .  S
C588        C795   1.420       .  A
C589        C794   1.420       .  A
C589        C590   1.407       .  A
C589        C596   1.520       .  S
C590        C591   1.405       .  A
C590        H595   1.083       .  S
C591        C798   1.418       .  A
C592        C797   1.418   1_545  A
C592        C593   1.519       .  S
C593        F597   1.384       .  S
C593        F598   1.383       .  S
C593        F599   1.383       .  S
C596        F600   1.384       .  S
C596        F601   1.382       .  S
C596        F602   1.385       .  S
C603        C604   1.403       .  A
C603        C608   1.404       .  A
C603        H610   1.083       .  S
C605        C606   1.410       .  A
C605        C612   1.519       .  S
C606        C607   1.406       .  A
C606        H611   1.083       .  S
C608        C609   1.522       .  S
C609        F613   1.385       .  S
C609        F614   1.384       .  S
C609        F615   1.383       .  S
C612        F616   1.382       .  S
C612        F617   1.384       .  S
C612        F618   1.384       .  S
N619        H651   1.043       .  S
N619        C623   1.349   1_545  A
N620        C627   1.347       .  A
N620        C628   1.347       .  A
N621        H652   1.043       .  S
N621        C626   1.348       .  A
N622        C629   1.349       .  A
N622        C630   1.349       .  A
C623        C631   1.384       .  A
C623        C639   1.406       .  A
C624        C632   1.390       .  A
C625        C633   1.388       .  A
C626        C641   1.406       .  A
C626        C634   1.385       .  A
C627        C639   1.409       .  A
C627        C635   1.385       .  A
C628        C642   1.414       .  A
C628        C636   1.389       .  A
C629        C637   1.388       .  A
C629        C640   1.417       .  A
C630        C638   1.386       .  A
C630        C641   1.414       .  A
C631        H643   1.083       .  S
C632        H644   1.083       .  S
C633        H645   1.083       .  S
C634        H646   1.083       .  S
C635        C636   1.384       .  A
C635        H647   1.081   1_655  S
C636        H648   1.080   1_655  S
C637        C638   1.388       .  A
C637        H649   1.081       .  S
C638        H650   1.081       .  S
C641        C753   1.492       .  S
C642        C745   1.490       .  S
In653       O664   2.242       .  S
In653       O665   2.241       .  S
C654        C739   1.467       .  S
C654        O662   1.261       .  A
O655        C663   1.260   1_655  A
C657        C751   1.474       .  S
C657        O664   1.256       .  A
C659        C759   1.478       .  S
C659        O665   1.257       .  A
C663        C747   1.470   1_455  S
In666       O671   2.219   1_445  S
In666       O673   2.274   1_545  S
C667        C683   1.471       .  S
C667        O675   1.259       .  A
O668        C676   1.263   1_565  A
C670        C723   1.465       .  S
C670        O677   1.263       .  A
C672        C727   1.471       .  S
C672        O678   1.259   1_455  A
C676        C733   1.479       .  S
C679        N680   1.360       .  A
C679        N684   1.366       .  A
C679        C813   1.484       .  S
N680        C681   1.354       .  A
C681        N682   1.358       .  A
N682        C683   1.355       .  A
C683        N684   1.361       .  A
N685        H717   1.044       .  S
N685        C689   1.350       .  A
N686        C693   1.347   1_554  A
N686        C694   1.346       .  A
N687        H718   1.043       .  S
N687        C691   1.350       .  A
N688        C695   1.346   1_554  A
N688        C696   1.346       .  A
C689        C697   1.385       .  A
C689        C705   1.409       .  A
C690        C706   1.413       .  A
C690        C698   1.389   1_655  A
C691        C699   1.386       .  A
C691        C708   1.411       .  A
C692        C707   1.416       .  A
C692        C700   1.389   1_655  A
C693        C705   1.413       .  A
C693        C701   1.387   1_565  A
C694        C708   1.412       .  A
C694        C702   1.387   1_565  A
C695        C703   1.388       .  A
C695        C706   1.412       .  A
C696        C704   1.387       .  A
C696        C707   1.411       .  A
C697        H709   1.083       .  S
C698        H710   1.083   1_455  S
C699        H711   1.083       .  S
C700        H712   1.083   1_455  S
C701        C702   1.391   1_556  A
C701        H713   1.082       .  S
C702        H714   1.082       .  S
C703        C704   1.389   1_556  A
C703        H715   1.081   1_565  S
C704        H716   1.081   1_565  S
C706        C741   1.494       .  S
C708        C735   1.486       .  S
C719        N720   1.368       .  A
C719        N724   1.369       .  A
C719        C794   1.488       .  S
N720        C721   1.359       .  A
C721        N722   1.352       .  A
N722        C723   1.345       .  A
C723        N724   1.357       .  A
C725        N726   1.368   1_655  A
C725        N730   1.367       .  A
C725        C810   1.484       .  S
N726        C727   1.359       .  A
C727        N728   1.349   1_455  A
N728        C729   1.354       .  A
C729        N730   1.355       .  A
C731        N732   1.367   1_565  A
C731        N736   1.364       .  A
C731        C797   1.486       .  S
N732        C733   1.361       .  A
C733        N734   1.356       .  A
N734        C735   1.359   1_545  A
C735        N736   1.355       .  A
C737        N738   1.369       .  A
C737        N742   1.367       .  A
C737        C778   1.485       .  S
N738        C739   1.358       .  A
C739        N740   1.346       .  A
N740        C741   1.353       .  A
C741        N742   1.358       .  A
C743        N744   1.359       .  A
C743        N748   1.370       .  A
C743        C762   1.485       .  S
N744        C745   1.351       .  A
C745        N746   1.353       .  A
N746        C747   1.351       .  A
C747        N748   1.362       .  A
C749        N750   1.365       .  A
C749        N754   1.365       .  A
C749        C765   1.485       .  S
N750        C751   1.359       .  A
C751        N752   1.355       .  A
N752        C753   1.359       .  A
C753        N754   1.355       .  A
C755        N756   1.365       .  A
C755        N760   1.368       .  A
C755        C781   1.484       .  S
N756        C757   1.355       .  A
C757        N758   1.358       .  A
N758        C759   1.355       .  A
C759        N760   1.362       .  A
C761        C766   1.410       .  A
C761        H768   1.083       .  S
C762        C763   1.424       .  A
C763        C764   1.402       .  A
C763        C770   1.524       .  S
C764        H769   1.083       .  S
C765        C766   1.420       .  A
C766        C767   1.519       .  S
C767        F771   1.385       .  S
C767        F772   1.384       .  S
C767        F773   1.382       .  S
C770        F774   1.382       .  S
C770        F775   1.383       .  S
C770        F776   1.385       .  S
C777        C782   1.409       .  A
C777        H784   1.083       .  S
C778        C779   1.420       .  A
C779        C780   1.406       .  A
C779        C786   1.520       .  S
C780        H785   1.083       .  S
C781        C782   1.418       .  A
C782        C783   1.518       .  S
C783        F787   1.385       .  S
C783        F788   1.383       .  S
C783        F789   1.382       .  S
C786        F790   1.383       .  S
C786        F791   1.383       .  S
C786        F792   1.385       .  S
C793        C794   1.405       .  A
C793        C798   1.408       .  A
C793        H800   1.083       .  S
C795        C796   1.408       .  A
C795        C802   1.520       .  S
C796        C797   1.405       .  A
C796        H801   1.083       .  S
C798        C799   1.519       .  S
C799        F803   1.384       .  S
C799        F804   1.383       .  S
C799        F805   1.383       .  S
C802        F806   1.384       .  S
C802        F807   1.382       .  S
C802        F808   1.385       .  S
C809        C810   1.403       .  A
C809        C814   1.404       .  A
C809        H816   1.083       .  S
C811        C812   1.410       .  A
C811        C818   1.519       .  S
C812        C813   1.406       .  A
C812        H817   1.083       .  S
C814        C815   1.521       .  S
C815        F819   1.385       .  S
C815        F820   1.384       .  S
C815        F821   1.383       .  S
C818        F822   1.382       .  S
C818        F823   1.384       .  S
C818        F824   1.384       .  S
