geometry optimzed in LAMMPS
_audit_creation_date              2020-12-01 
_audit_creation_method            'lammps2cif' 
_symmetry_space_group_name_H-M    'P1' 
_symmetry_Int_Tables_number       1 
_symmetry_cell_setting            triclinic 
loop_ 
_symmetry_equiv_pos_as_xyz 
  x,y,z 
_cell_length_a                    26.26255327 
_cell_length_b                    26.7051111279455 
_cell_length_c                    65.02902299072444 
_cell_angle_alpha                 90.04407823449478 
_cell_angle_beta                  90.21380306379132 
_cell_angle_gamma                 91.52503308116457 
loop_ 
_atom_site_label 
_atom_site_type_symbol 
_atom_site_fract_x 
_atom_site_fract_y 
_atom_site_fract_z 
_atom_site_charge 
O1          O  0.97089182  0.98700879  0.48010535    -0.73300
O2          O  0.03458208  0.07580718  0.52345844    -0.74300
O3          O  0.03072774  0.07686503  0.47983489    -0.62900
O4          O  0.97444610  0.98643223  0.52390324    -0.71400
O5          O  0.04515115  0.94347832  0.52411519    -0.70900
O6          O  0.09977303  0.03150132  0.47825740    -0.62200
O7          O  0.10534257  0.03302436  0.52213466    -0.74700
O8          O  0.03977999  0.94140680  0.48015845    -0.73400
Cu9        Cu  0.00028087  0.03297298  0.50185413     1.04600
Cu10       Cu  0.07493827  0.98575648  0.50110074     1.04300
C11         C  0.99530370  0.94998810  0.47312581     0.92900
C12         C  0.07987410  0.06842376  0.52985928     0.92000
C13         C  0.07407324  0.06845163  0.47186198     0.84100
C14         C  0.00115990  0.95182673  0.53158978     0.90400
C15         C  0.05365937  0.05618136  0.73306346     0.86100
C16         C  0.03319894  0.01191048  0.72018735    -0.54100
C17         C  0.02442428  0.96886784  0.73112715     0.09000
C18         C  0.03677588  0.97439855  0.75416358     0.20000
C19         C  0.01383677  0.06199249  0.75007258    -0.54900
C20         C  0.00513388  0.01902255  0.76106651     0.09100
C21         C  0.10108298  0.03655369  0.74387795    -0.54400
C22         C  0.09226784  0.99402254  0.75506548     0.09700
H23         H  0.02639119  0.01463611  0.70375399     0.14200
H24         H  0.02921958  0.93961443  0.76312357    -0.00100
H25         H  0.99350229  0.09614320  0.75292107     0.14500
H26         H  0.13807967  0.05562234  0.74316083     0.14300
C27         C  0.04597642  0.06034520  0.26707110     0.86100
C28         C  0.00320056  0.06477989  0.25092825    -0.54100
C29         C  0.99417955  0.02137403  0.24005534     0.09000
C30         C  0.02844480  0.97788369  0.24630726     0.20000
C31         C  0.02896807  0.01568064  0.28030064    -0.54900
C32         C  0.01974902  0.97236179  0.26962219     0.09100
C33         C  0.09218385  0.04214463  0.25514885    -0.54400
C34         C  0.08317803  0.99928078  0.24414517     0.09700
H35         H  0.98182729  0.09846397  0.24841316     0.14200
H36         H  0.02076893  0.94274075  0.23755368    -0.00100
H37         H  0.02456693  0.01836802  0.29686098     0.14500
H38         H  0.12862673  0.06233419  0.25510305     0.14300
N39         N  0.93188595  0.79836609  0.37098834    -0.27700
N40         N  0.92889570  0.84498150  0.36456278    -0.35500
C41         C  0.92931932  0.87584416  0.38090363     0.00700
C42         C  0.93350762  0.84722473  0.39853434     0.06700
C43         C  0.93468622  0.79809485  0.39166022    -0.06400
H44         H  0.93182302  0.91632292  0.37995074     0.07300
H45         H  0.94136176  0.76511692  0.40084729     0.08500
Cu46       Cu  0.93936862  0.86277836  0.33397141     0.44200
Cu47       Cu  0.94512751  0.74115102  0.35041268     0.42000
Cu48       Cu  0.99948878  0.77307026  0.29917404     0.43900
N49         N  0.96811316  0.87997530  0.30526095    -0.35100
N50         N  0.99109250  0.84935803  0.29247803    -0.29300
C51         C  0.01067015  0.87681616  0.27674038    -0.05400
C52         C  0.99990256  0.92680359  0.28016733     0.06800
C53         C  0.97264796  0.92691744  0.29824534     0.00600
H54         H  0.03400411  0.86208865  0.26457649     0.08200
H55         H  0.95935927  0.95928775  0.30644835     0.07300
N56         N  0.99977961  0.70161111  0.31268700    -0.36500
N57         N  0.97733306  0.69089273  0.33039823    -0.28700
C58         C  0.98450725  0.64273439  0.33506884    -0.03900
C59         C  0.01450476  0.62176999  0.32009529     0.04700
C60         C  0.02263506  0.66003846  0.30587092     0.02800
H61         H  0.96951922  0.62477926  0.34872467     0.07900
H62         H  0.04475058  0.65819593  0.29190142     0.04300
O63         O  0.09934374  0.84142225  0.97638936    -0.73300
O64         O  0.99246635  0.83897970  0.02126878    -0.74300
O65         O  0.99172881  0.83627240  0.97690141    -0.62900
O66         O  0.09951082  0.84323229  0.02100672    -0.71400
O67         O  0.09731418  0.92609629  0.02015984    -0.70900
O68         O  0.99005173  0.91928941  0.97658107    -0.62200
O69         O  0.99118690  0.92193893  0.02013975    -0.74700
O70         O  0.09651136  0.92432387  0.97631673    -0.73400
Cu71       Cu  0.04594371  0.83692204  0.99888272     1.04600
Cu72       Cu  0.04387487  0.92557984  0.99824324     1.04300
C73         C  0.11294212  0.88379698  0.96869064     0.92900
C74         C  0.97666692  0.88057555  0.02829187     0.92000
C75         C  0.97442857  0.87689172  0.96959964     0.84100
C76         C  0.11331099  0.88592269  0.02832117     0.90400
N77         N  0.82815229  0.93977542  0.13118933    -0.27700
N78         N  0.87515920  0.93634013  0.13821774    -0.35500
C79         C  0.90538998  0.92171578  0.12283340     0.00700
C80         C  0.87613566  0.91620632  0.10517403     0.06700
C81         C  0.82714472  0.92763604  0.11107934    -0.06400
H82         H  0.94609423  0.91731155  0.12418858     0.07300
H83         H  0.79347194  0.92787601  0.10145086     0.08500
Cu84       Cu  0.89633317  0.95685694  0.16790455     0.44200
Cu85       Cu  0.76943110  0.96343896  0.14961734     0.42000
Cu86       Cu  0.80153891  0.00831163  0.20188134     0.43900
N87         N  0.91290250  0.98782705  0.19653341    -0.35100
N88         N  0.87912683  0.00871427  0.20865487    -0.29300
C89         C  0.90317298  0.02630196  0.22565444    -0.05400
C90         C  0.95427395  0.01530217  0.22416338     0.06800
C91         C  0.95891308  0.99068381  0.20562218     0.00600
H92         H  0.88448695  0.04355241  0.23854681     0.08200
H93         H  0.99318825  0.97554340  0.19923706     0.07300
N94         N  0.72795083  0.00263188  0.18993062    -0.36500
N95         N  0.71722853  0.98773215  0.17094364    -0.28700
C96         C  0.66674768  0.98909673  0.16791633    -0.03900
C97         C  0.64439485  0.00569045  0.18575941     0.04700
C98         C  0.68414846  0.01323802  0.19953930     0.02800
H99         H  0.64753556  0.97733546  0.15390246     0.07900
H100        H  0.68143499  0.02534592  0.21537570     0.06700
N101        N  0.13414959  0.22794465  0.37176088    -0.27700
N102        N  0.13883511  0.18222690  0.36446860    -0.35500
C103        C  0.13948710  0.14967189  0.38021955     0.00700
C104        C  0.13448240  0.17618988  0.39834306     0.06700
C105        C  0.13125984  0.22586225  0.39241269    -0.06400
H106        H  0.13777127  0.10936694  0.37850282     0.07300
H107        H  0.12261856  0.25728289  0.40217344     0.08500
Cu108      Cu  0.12747000  0.16648459  0.33364081     0.44200
Cu109      Cu  0.11963374  0.28711667  0.35230241     0.42000
Cu110      Cu  0.05739973  0.25676497  0.30260527     0.43900
N111        N  0.09320502  0.15053567  0.30562024    -0.35100
N112        N  0.06429261  0.18094858  0.29490609    -0.29300
C113        C  0.04268741  0.15473498  0.27918130    -0.05400
C114        C  0.05926699  0.10574963  0.28013127     0.06800
C115        C  0.09156008  0.10505091  0.29693626     0.00600
H116        H  0.01684154  0.17015819  0.26801814     0.08200
H117        H  0.11076060  0.07286667  0.30300669     0.07300
N118        N  0.06885143  0.32954469  0.31422843    -0.36500
N119        N  0.09408508  0.33936407  0.33146715    -0.28700
C120        C  0.09600793  0.38894111  0.33464044    -0.03900
C121        C  0.07024964  0.41239802  0.31888521     0.04700
C122        C  0.05326427  0.37322407  0.30621521     0.02800
H123        H  0.11365171  0.40640778  0.34798240     0.07900
H124        H  0.02943121  0.37577054  0.29270244     0.06700
N125        N  0.24250162  0.90063355  0.13834206    -0.27700
N126        N  0.19441694  0.90145804  0.14420470    -0.35500
C127        C  0.16436301  0.89587192  0.12753479     0.00700
C128        C  0.19519071  0.89118830  0.11044826     0.06700
C129        C  0.24447538  0.89402493  0.11786377    -0.06400
H130        H  0.12330745  0.89810247  0.12766505     0.07300
H131        H  0.27907992  0.89527915  0.10888673     0.08500
Cu132      Cu  0.17252790  0.91774490  0.17409768     0.44200
Cu133      Cu  0.30239773  0.91859730  0.15770767     0.42000
Cu134      Cu  0.27303459  0.96679787  0.20817813     0.43900
N135        N  0.15969427  0.94536830  0.20345995    -0.35100
N136        N  0.19597158  0.96490461  0.21540292    -0.29300
C137        C  0.17445088  0.98520395  0.23205757    -0.05400
C138        C  0.12218066  0.97776187  0.23066266     0.06800
C139        C  0.11420886  0.95206415  0.21240632     0.00600
H140        H  0.19531647  0.00529448  0.24398574     0.08200
H141        H  0.07795293  0.94181882  0.20547049     0.07300
N142        N  0.34638981  0.96525312  0.19636940    -0.36500
N143        N  0.35615770  0.94779902  0.17780626    -0.28700
C144        C  0.40594932  0.95405668  0.17388949    -0.03900
C145        C  0.42900224  0.97594169  0.19084083     0.04700
C146        C  0.39027282  0.98267851  0.20489307     0.02800
H147        H  0.42402641  0.94380451  0.15961801     0.07900
H148        H  0.39349484  0.00003985  0.21990242     0.06700
N149        N  0.83302691  0.93249228  0.86645275    -0.27700
N150        N  0.88063674  0.92850369  0.86037455    -0.35500
C151        C  0.90815909  0.90935128  0.87578365     0.00700
C152        C  0.87618786  0.90080629  0.89235665     0.06700
C153        C  0.82889569  0.91644355  0.88598955    -0.06400
H154        H  0.94887495  0.90434507  0.87531471     0.07300
H155        H  0.79437404  0.91710074  0.89499860     0.08500
Cu156      Cu  0.90593268  0.95414401  0.83211465     0.44200
Cu157      Cu  0.77744126  0.96081468  0.84763595     0.42000
Cu158      Cu  0.81282456  0.00897608  0.79718127     0.43900
N159        N  0.92376402  0.98711680  0.80420598    -0.35100
N160        N  0.89068775  0.00888353  0.79193656    -0.29300
C161        C  0.91532291  0.02625794  0.77519726    -0.05400
C162        C  0.96596650  0.01422495  0.77699430     0.06800
C163        C  0.96997360  0.98920709  0.79543246     0.00600
H164        H  0.89716039  0.04357492  0.76214209     0.08200
H165        H  0.00371506  0.97275662  0.80183184     0.07300
N166        N  0.73818099  0.00098233  0.80720378    -0.36500
N167        N  0.72634472  0.98455354  0.82580503    -0.28700
C168        C  0.67567581  0.98392319  0.82797949    -0.03900
C169        C  0.65429902  0.00098477  0.80998149     0.04700
C170        C  0.69487310  0.01081572  0.79693995     0.02800
H171        H  0.65574121  0.97098987  0.84159275     0.07900
H172        H  0.69310714  0.02429634  0.78126819     0.06700
N173        N  0.93272003  0.79194177  0.63182316    -0.27700
N174        N  0.92928559  0.83796867  0.63886150    -0.35500
C175        C  0.93252010  0.87037921  0.62315953     0.00700
C176        C  0.93904621  0.84361639  0.60519197     0.06700
C177        C  0.93826766  0.79364557  0.61122025    -0.06400
H178        H  0.93506242  0.91059262  0.62492057     0.07300
H179        H  0.94494573  0.76143685  0.60166170     0.08500
Cu180      Cu  0.93617834  0.85448927  0.66956369     0.44200
Cu181      Cu  0.94287931  0.73339355  0.65220019     0.42000
Cu182      Cu  0.99166805  0.76747539  0.70514776     0.43900
N183        N  0.96634489  0.87484430  0.69757044    -0.35100
N184        N  0.98782748  0.84464207  0.71094701    -0.29300
C185        C  0.00982849  0.87304384  0.72595658    -0.05400
C186        C  0.00231342  0.92317642  0.72131951     0.06800
C187        C  0.97438750  0.92245212  0.70334572     0.00600
H188        H  0.03256537  0.85860492  0.73841549     0.08200
H189        H  0.96285404  0.95436185  0.69439199     0.07300
N190        N  0.99286282  0.69588820  0.69171832    -0.36500
N191        N  0.97290638  0.68444627  0.67350595    -0.28700
C192        C  0.98250055  0.63662755  0.66903861    -0.03900
C193        C  0.01152860  0.61684171  0.68466507     0.04700
C194        C  0.01638860  0.65519031  0.69905346     0.02800
H195        H  0.97041526  0.61827563  0.65495957     0.07900
H196        H  0.03751107  0.65431063  0.71336211     0.06700
N197        N  0.13923155  0.22968101  0.62976627    -0.27700
N198        N  0.14018955  0.18328209  0.63660103    -0.35500
C199        C  0.14004079  0.15150600  0.62064259     0.00700
C200        C  0.13841275  0.17910790  0.60271215     0.06700
C201        C  0.13846794  0.22880385  0.60905437    -0.06400
H202        H  0.13664042  0.11120056  0.62201023     0.07300
H203        H  0.13502286  0.26161966  0.59944312     0.08500
Cu204      Cu  0.12864407  0.16563220  0.66687828     0.44200
Cu205      Cu  0.12855631  0.28854263  0.64996007     0.42000
Cu206      Cu  0.06823813  0.25500704  0.70009516     0.43900
N207        N  0.09718492  0.14753921  0.69473611    -0.35100
N208        N  0.07195776  0.17826509  0.70667129    -0.29300
C209        C  0.05195370  0.15146886  0.72245805    -0.05400
C210        C  0.06572393  0.10178316  0.72013636     0.06800
C211        C  0.09465364  0.10120924  0.70251663     0.00600
H212        H  0.02945097  0.16705604  0.73467130     0.08200
H213        H  0.11136754  0.06888963  0.69544054     0.07300
N214        N  0.07992382  0.32825958  0.68902263    -0.36500
N215        N  0.10468608  0.33926632  0.67186456    -0.28700
C216        C  0.10612006  0.38905964  0.66925875    -0.03900
C217        C  0.08021197  0.41148293  0.68523787     0.04700
C218        C  0.06391052  0.37126596  0.69744418     0.02800
H219        H  0.12320147  0.40722513  0.65602985     0.07900
H220        H  0.03972335  0.37242835  0.71081239     0.06700
N221        N  0.25311507  0.90306755  0.86087911    -0.27700
N222        N  0.20564547  0.89799808  0.85426196    -0.35500
C223        C  0.17490578  0.88964936  0.87044604     0.00700
C224        C  0.20442782  0.88963913  0.88814344     0.06700
C225        C  0.25393492  0.89793852  0.88149505    -0.06400
H226        H  0.13379433  0.88709608  0.86955954     0.07300
H227        H  0.28744714  0.90345952  0.89102782     0.08500
Cu228      Cu  0.18445392  0.91107412  0.82399302     0.44200
Cu229      Cu  0.31249939  0.92343309  0.84143912     0.42000
Cu230      Cu  0.28362017  0.95638239  0.78850938     0.43900
N231        N  0.17064022  0.93804849  0.79462384    -0.35100
N232        N  0.20635717  0.95602443  0.78215136    -0.29300
C233        C  0.18406117  0.97686175  0.76574192    -0.05400
C234        C  0.13185732  0.97136129  0.76789317     0.06800
C235        C  0.12469836  0.94633736  0.78628796     0.00600
H236        H  0.20441158  0.99618430  0.75354346     0.08200
H237        H  0.08881085  0.93783869  0.79377914     0.07300
N238        N  0.35665786  0.95729052  0.80051763    -0.36500
N239        N  0.36639640  0.94587814  0.81989498    -0.28700
C240        C  0.41633142  0.95290505  0.82349813    -0.03900
C241        C  0.43941841  0.96915823  0.80556430     0.04700
C242        C  0.40045647  0.97169854  0.79123433     0.02800
H243        H  0.43448115  0.94737561  0.83826099     0.07900
H244        H  0.40333643  0.98472472  0.77552336     0.06700
C245        C  0.03404800  0.56629241  0.68516365    -0.06500
C246        C  0.03655655  0.54018750  0.70386520    -0.17600
C247        C  0.05371263  0.49064750  0.70475555     0.10700
C248        C  0.06643043  0.46556004  0.68630824    -0.06400
C249        C  0.06630563  0.49305965  0.66785503    -0.17700
C250        C  0.05230701  0.54318376  0.66718119     0.10700
S251        S  0.06170588  0.46174265  0.72961482    -0.32600
S252        S  0.06135374  0.57749757  0.64341568    -0.32700
H253        H  0.08914105  0.54114480  0.63294261     0.28700
H254        H  0.04743439  0.50285191  0.74162667     0.28700
H255        H  0.02454157  0.55858838  0.71779767     0.19300
H256        H  0.07671155  0.47531728  0.65361438     0.19300
C257        C  0.59928100  0.00389568  0.80588281    -0.06500
C258        C  0.57816816  0.97777154  0.78902189    -0.17600
C259        C  0.52556043  0.96751096  0.78782727     0.10700
C260        C  0.49351342  0.98471073  0.80362701    -0.06400
C261        C  0.51446243  0.01473716  0.81936892    -0.17700
C262        C  0.56666892  0.02489556  0.82055354     0.10700
S263        S  0.50276750  0.92834776  0.76699400    -0.32600
S264        S  0.58944451  0.06397960  0.84147273    -0.32700
H265        H  0.63299510  0.08262502  0.83119021     0.28700
H266        H  0.46926959  0.89911412  0.77914295     0.28700
H267        H  0.60307374  0.96166372  0.77768117     0.19300
H268        H  0.49000033  0.02944126  0.83119470     0.19300
C269        C  0.58919469  0.00811423  0.18953360    -0.06500
C270        C  0.56839764  0.98172868  0.20631387    -0.17600
C271        C  0.51579109  0.97225610  0.20772349     0.10700
C272        C  0.48326686  0.99074725  0.19231815    -0.06400
C273        C  0.50385086  0.02042750  0.17647624    -0.17700
C274        C  0.55623274  0.02974209  0.17503163     0.10700
S275        S  0.49331304  0.93246839  0.22833384    -0.32600
S276        S  0.57857920  0.06898324  0.15418567    -0.32700
H277        H  0.62293082  0.08676774  0.16428924     0.28700
H278        H  0.45742086  0.90528879  0.21637639     0.28700
H279        H  0.59349272  0.96496684  0.21748162     0.19300
H280        H  0.47892087  0.03553270  0.16483063     0.19300
C281        C  0.89192804  0.88648900  0.91327966    -0.06500
C282        C  0.87891958  0.91743156  0.92977660    -0.17600
C283        C  0.90164110  0.91190354  0.94910203     0.10700
C284        C  0.93907467  0.87543442  0.95189935    -0.06400
C285        C  0.94816273  0.84135766  0.93596402    -0.17700
C286        C  0.92451882  0.84616772  0.91678870     0.10700
S287        S  0.88199185  0.95296440  0.96945224    -0.32600
S288        S  0.93805073  0.80031916  0.89731887    -0.32700
H289        H  0.89113991  0.80395415  0.88697635     0.28700
H290        H  0.89116964  0.91890582  0.98547035     0.28700
H291        H  0.85278199  0.94761211  0.92736924     0.19300
H292        H  0.97587016  0.81241655  0.93806707     0.19300
C293        C  0.94414591  0.88246740  0.04681892    -0.06500
C294        C  0.90813197  0.92033408  0.04810709    -0.17600
C295        C  0.88422215  0.93151936  0.06671078     0.10700
C296        C  0.89521941  0.90323516  0.08448776    -0.06400
C297        C  0.92886649  0.86349178  0.08289836    -0.17700
C298        C  0.95379953  0.85319409  0.06445697     0.10700
S299        S  0.84429025  0.98535663  0.06704911    -0.32600
S300        S  0.00125877  0.80577092  0.06514819    -0.32700
H301        H  0.03980104  0.83744002  0.05705963     0.28700
H302        H  0.86352833  0.00428752  0.08579914     0.28700
H303        H  0.90082119  0.94345850  0.03477330     0.19300
H304        H  0.93767413  0.84167278  0.09644739     0.19300
C305        C  0.18572149  0.89116857  0.90955132    -0.06500
C306        C  0.20142714  0.85508620  0.92380409    -0.17600
C307        C  0.18061644  0.85277131  0.94371162     0.10700
C308        C  0.14296811  0.88702823  0.94942640    -0.06400
C309        C  0.12944098  0.92438139  0.93537583    -0.17700
C310        C  0.15052010  0.92711981  0.91576655     0.10700
S311        S  0.20413866  0.80613569  0.96108377    -0.32600
S312        S  0.13084381  0.97777503  0.89947594    -0.32700
H313        H  0.17853618  0.98531667  0.89003977     0.28700
H314        H  0.19868713  0.83527013  0.97893775     0.28700
H315        H  0.22928897  0.82801709  0.91927642     0.19300
H316        H  0.10091300  0.95121178  0.93946731     0.19300
C317        C  0.14268698  0.88948573  0.04782006    -0.06500
C318        C  0.13312365  0.93050789  0.06068808    -0.17600
C319        C  0.15139025  0.93273965  0.08083349     0.10700
C320        C  0.17938308  0.89269773  0.08870730    -0.06400
C321        C  0.19155569  0.85290540  0.07568158    -0.17700
C322        C  0.17381649  0.85096293  0.05530703     0.10700
S323        S  0.13761324  0.98782846  0.09566658    -0.32600
S324        S  0.19249800  0.79871843  0.03976602    -0.32700
H325        H  0.19580465  0.82633490  0.02137671     0.28700
H326        H  0.18409514  0.98925869  0.10649324     0.28700
H327        H  0.10957478  0.96057182  0.05531068     0.19300
H328        H  0.21420741  0.82267823  0.08154501     0.19300
C329        C  0.05818939  0.46673581  0.31821491    -0.06500
C330        C  0.05504957  0.49239287  0.33702480    -0.17600
C331        C  0.04499459  0.54334596  0.33795073     0.10700
C332        C  0.03344534  0.56968011  0.31970868    -0.06400
C333        C  0.03803795  0.54477158  0.30077551    -0.17700
C334        C  0.05145092  0.49404190  0.29978182     0.10700
S335        S  0.05170124  0.57262242  0.36286507    -0.32600
S336        S  0.06272050  0.46608947  0.27497426    -0.32700
H337        H  0.05360576  0.50883139  0.26302500     0.28700
H338        H  0.07297305  0.61775133  0.35520289     0.28700
H339        H  0.06125074  0.47290155  0.35136916     0.19300
H340        H  0.03069127  0.56505266  0.28671603     0.19300
C341        C  0.97398414  0.91817316  0.45604380    -0.06500
C342        C  0.00535749  0.88154841  0.44755228    -0.17600
C343        C  0.99206600  0.85604415  0.42935905     0.10700
C344        C  0.94602714  0.86699485  0.41927116    -0.06400
C345        C  0.91335294  0.90145442  0.42816592    -0.17700
C346        C  0.92602194  0.92613077  0.44658762     0.10700
S347        S  0.03643792  0.81299740  0.41833105    -0.32600
S348        S  0.87907215  0.96718840  0.45684888    -0.32700
H349        H  0.88303288  0.94807122  0.47694466     0.28700
H350        H  0.07628864  0.82132854  0.43253734     0.28700
H351        H  0.04162138  0.87421759  0.45470318     0.19300
H352        H  0.87768127  0.90943738  0.42059176     0.19300
C353        C  0.98184974  0.92201284  0.54953115    -0.06500
C354        C  0.00723860  0.87825828  0.55519833    -0.17600
C355        C  0.99385569  0.85114589  0.57294534     0.10700
C356        C  0.95239753  0.86641590  0.58504858    -0.06400
C357        C  0.92575761  0.90874532  0.57898621    -0.17700
C358        C  0.94039726  0.93713440  0.56184283     0.10700
S359        S  0.03424003  0.80052131  0.58016346    -0.32600
S360        S  0.90654526  0.99411717  0.55781233    -0.32700
H361        H  0.95124180  0.02443342  0.55823043     0.28700
H362        H  0.03788648  0.81490367  0.60094968     0.28700
H363        H  0.03931562  0.86609346  0.54623601     0.19300
H364        H  0.89438654  0.92124018  0.58829825     0.19300
C365        C  0.12045452  0.15400836  0.41841127    -0.06500
C366        C  0.15649923  0.12625289  0.42909283    -0.17600
C367        C  0.14372705  0.10073948  0.44727772     0.10700
C368        C  0.09282635  0.10066196  0.45454353    -0.06400
C369        C  0.05732001  0.13005014  0.44404159    -0.17700
C370        C  0.07059935  0.15678380  0.42619337     0.10700
S371        S  0.19463507  0.07025039  0.46053376    -0.32600
S372        S  0.02252570  0.19110190  0.41260281    -0.32700
H373        H  0.98408726  0.18578344  0.42750594     0.28700
H374        H  0.17973492  0.08682911  0.48011271     0.28700
H375        H  0.19495122  0.12466689  0.42326411     0.19300
H376        H  0.01834441  0.13059712  0.44934171     0.19300
C377        C  0.12878571  0.15745932  0.58206217    -0.06500
C378        C  0.15717197  0.11610205  0.57619636    -0.17600
C379        C  0.14428601  0.08749219  0.55874256     0.10700
C380        C  0.10137490  0.10053605  0.54673602    -0.06400
C381        C  0.07503642  0.14392401  0.55202038    -0.17700
C382        C  0.08769939  0.17206844  0.56959693     0.10700
S383        S  0.18128139  0.03289511  0.55329620    -0.32600
S384        S  0.04760448  0.22307606  0.57690739    -0.32700
H385        H  0.01192143  0.21794921  0.56081264     0.28700
H386        H  0.22222599  0.04460365  0.56662507     0.28700
H387        H  0.18838428  0.10484876  0.58596498     0.19300
H388        H  0.04281192  0.15471823  0.54280545     0.19300
loop_ 
_geom_bond_atom_site_label_1 
_geom_bond_atom_site_label_2 
_geom_bond_distance 
_geom_bond_site_symmetry_2 
_ccdc_geom_bond_type 
O1           Cu9   2.010   1_665  S
O1           C11   1.277       .  A
O2           Cu9   2.007       .  S
O2           C12   1.279       .  A
O3           Cu9   2.006       .  S
O3           C13   1.278       .  A
O4           Cu9   2.007   1_665  S
O4           C14   1.276   1_655  A
O5          Cu10   2.023       .  S
O5           C14   1.280       .  A
O6          Cu10   2.023   1_545  S
O6           C13   1.279       .  A
O7          Cu10   2.009   1_545  S
O7           C12   1.276       .  A
O8          Cu10   2.010       .  S
O8           C11   1.279   1_455  A
Cu9         Cu10   2.360   1_545  S
C11         C341   1.496       .  S
C12         C380   1.492       .  S
C13         C368   1.495       .  S
C14         C353   1.496   1_455  S
C15          C16   1.533       .  S
C15          C21   1.533       .  S
C15          C19   1.536       .  S
C15         C210   1.508       .  S
C16          H23   1.086       .  S
C16          C17   1.367   1_545  D
C17          C18   1.538       .  S
C17         C186   1.480       .  S
C18          C22   1.536       .  S
C18          C20   1.538   1_565  S
C18          H24   1.111       .  S
C19          H25   1.085   1_455  S
C19          C20   1.367       .  D
C20         C162   1.466   1_455  S
C21          H26   1.086       .  S
C21          C22   1.364   1_545  D
C22         C234   1.473       .  S
C27          C28   1.542       .  S
C27          C33   1.532       .  S
C27          C31   1.529       .  S
C27         C114   1.512       .  S
C28          H35   1.085   1_455  S
C28          C29   1.372   1_455  D
C29          C30   1.542   1_645  S
C29          C90   1.475       .  S
C30          C34   1.540       .  S
C30          C32   1.541       .  S
C30          H36   1.111       .  S
C31          H37   1.086       .  S
C31          C32   1.364   1_545  D
C32          C52   1.481   1_455  S
C33          H38   1.086       .  S
C33          C34   1.364   1_545  D
C34         C138   1.478       .  S
N39          N40   1.318       .  A
N39          C43   1.346       .  A
N39         Cu47   2.067       .  S
N40          C41   1.344       .  A
N40         Cu46   2.063       .  S
C41          C42   1.384       .  A
C41          H44   1.083       .  S
C42         C344   1.480       .  S
C42          C43   1.387       .  A
C43          H45   1.082       .  S
Cu46         N49   2.064       .  S
Cu47         N57   2.068       .  S
Cu48         N50   2.101       .  S
Cu48         N56   2.102       .  S
N49          N50   1.324       .  A
N49          C53   1.337       .  A
N50          C51   1.354   1_655  A
C51          C52   1.390   1_455  A
C51          H54   1.083       .  S
C52          C53   1.379       .  A
C53          H55   1.082       .  S
N56          N57   1.324       .  A
N56          C60   1.351   1_655  A
N57          C58   1.340       .  A
C58          C59   1.382   1_655  A
C58          H61   1.080       .  S
C59         C332   1.490       .  S
C59          C60   1.392       .  A
C60          H62   1.082       .  S
O63         Cu71   2.032       .  S
O63          C73   1.280       .  A
O64         Cu71   2.028   1_654  S
O64          C74   1.281       .  A
O65         Cu71   2.014   1_655  S
O65          C75   1.278       .  A
O66         Cu71   2.012   1_554  S
O66          C76   1.278       .  A
O67         Cu72   1.996   1_554  S
O67          C76   1.278       .  A
O68         Cu72   1.996   1_655  S
O68          C75   1.277       .  A
O69         Cu72   1.990   1_654  S
O69          C74   1.275       .  A
O70         Cu72   1.991       .  S
O70          C73   1.276       .  A
Cu71        Cu72   2.370       .  S
C73         C308   1.484       .  S
C74         C293   1.481       .  S
C75         C284   1.476       .  S
C76         C317   1.483       .  S
N77          N78   1.320       .  A
N77          C81   1.347       .  A
N77         Cu85   2.068       .  S
N78          C79   1.344       .  A
N78         Cu84   2.076       .  S
C79          C80   1.385       .  A
C79          H82   1.082       .  S
C80         C296   1.481       .  S
C80          C81   1.386       .  A
C81          H83   1.082       .  S
Cu84         N87   2.076       .  S
Cu85         N95   2.070       .  S
Cu86         N88   2.083       .  S
Cu86         N94   2.082       .  S
N87          N88   1.323   1_565  A
N87          C91   1.343       .  A
N88          C89   1.349       .  A
C89          C90   1.385       .  A
C89          H92   1.082       .  S
C90          C91   1.380   1_545  A
C91          H93   1.081       .  S
N94          N95   1.324   1_545  A
N94          C98   1.348       .  A
N95          C96   1.341       .  A
C96          C97   1.380   1_565  A
C96          H99   1.082       .  S
C97         C269   1.474       .  S
C97          C98   1.384       .  A
C98         H100   1.082       .  S
N101        N102   1.318       .  A
N101        C105   1.347       .  A
N101       Cu109   2.068       .  S
N102        C103   1.344       .  A
N102       Cu108   2.067       .  S
C103        C104   1.383       .  A
C103        H106   1.082       .  S
C104        C365   1.477       .  S
C104        C105   1.386       .  A
C105        H107   1.081       .  S
Cu108       N111   2.068       .  S
Cu109       N119   2.068       .  S
Cu110       N112   2.098       .  S
Cu110       N118   2.099       .  S
N111        N112   1.323       .  A
N111        C115   1.339       .  A
N112        C113   1.353       .  A
C113        C114   1.391       .  A
C113        H116   1.081       .  S
C114        C115   1.381       .  A
C115        H117   1.082       .  S
N118        N119   1.323       .  A
N118        C122   1.351       .  A
N119        C120   1.339       .  A
C120        C121   1.385       .  A
C120        H123   1.082       .  S
C121        C329   1.494       .  S
C121        C122   1.394       .  A
C122        H124   1.080       .  S
N125        N126   1.321       .  A
N125        C129   1.345       .  A
N125       Cu133   2.058       .  S
N126        C127   1.344       .  A
N126       Cu132   2.078       .  S
C127        C128   1.385       .  A
C127        H130   1.082       .  S
C128        C320   1.473       .  S
C128        C129   1.380       .  A
C129        H131   1.082       .  S
Cu132       N135   2.078       .  S
Cu133       N143   2.058       .  S
Cu134       N136   2.079       .  S
Cu134       N142   2.078       .  S
N135        N136   1.323       .  A
N135        C139   1.347       .  A
N136        C137   1.344       .  A
C137        C138   1.384       .  A
C137        H140   1.082   1_565  S
C138        C139   1.383       .  A
C139        H141   1.081       .  S
N142        N143   1.322       .  A
N142        C146   1.348       .  A
N143        C144   1.339       .  A
C144        C145   1.378       .  A
C144        H147   1.082       .  S
C145        C272   1.472       .  S
C145        C146   1.385       .  A
C146        H148   1.082   1_565  S
N149        N150   1.320       .  A
N149        C153   1.345       .  A
N149       Cu157   2.061       .  S
N150        C151   1.343       .  A
N150       Cu156   2.067       .  S
C151        C152   1.384       .  A
C151        H154   1.082       .  S
C152        C281   1.474       .  S
C152        C153   1.383       .  A
C153        H155   1.082       .  S
Cu156       N159   2.068       .  S
Cu157       N167   2.062       .  S
Cu158       N160   2.074       .  S
Cu158       N166   2.074       .  S
N159        N160   1.323   1_565  A
N159        C163   1.343       .  A
N160        C161   1.345       .  A
C161        C162   1.381       .  A
C161        H164   1.082       .  S
C162        C163   1.378   1_545  A
C163        H165   1.082   1_655  S
N166        N167   1.322   1_545  A
N166        C170   1.349       .  A
N167        C168   1.338       .  A
C168        C169   1.379   1_565  A
C168        H171   1.082       .  S
C169        C257   1.472       .  S
C169        C170   1.384       .  A
C170        H172   1.082       .  S
N173        N174   1.317       .  A
N173        C177   1.349       .  A
N173       Cu181   2.072       .  S
N174        C175   1.341       .  A
N174       Cu180   2.051       .  S
C175        C176   1.383       .  A
C175        H178   1.080       .  S
C176        C356   1.484       .  S
C176        C177   1.391       .  A
C177        H179   1.079       .  S
Cu180       N183   2.051       .  S
Cu181       N191   2.074       .  S
Cu182       N184   2.100       .  S
Cu182       N190   2.102       .  S
N183        N184   1.322       .  A
N183        C187   1.337       .  A
N184        C185   1.354   1_655  A
C185        C186   1.392       .  A
C185        H188   1.082       .  S
C186        C187   1.377   1_455  A
C187        H189   1.082       .  S
N190        N191   1.326       .  A
N190        C194   1.351   1_655  A
N191        C192   1.340       .  A
C192        C193   1.382   1_655  A
C192        H195   1.081       .  S
C193        C245   1.488       .  S
C193        C194   1.390       .  A
C194        H196   1.082       .  S
N197        N198   1.318       .  A
N197        C201   1.347       .  A
N197       Cu205   2.073       .  S
N198        C199   1.340       .  A
N198       Cu204   2.047       .  S
C199        C200   1.381       .  A
C199        H202   1.081       .  S
C200        C377   1.480       .  S
C200        C201   1.389       .  A
C201        H203   1.082       .  S
Cu204       N207   2.047       .  S
Cu205       N215   2.075       .  S
Cu206       N208   2.099       .  S
Cu206       N214   2.100       .  S
N207        N208   1.322       .  A
N207        C211   1.337       .  A
N208        C209   1.352       .  A
C209        C210   1.393       .  A
C209        H212   1.081       .  S
C210        C211   1.377       .  A
C211        H213   1.082       .  S
N214        N215   1.323       .  A
N214        C218   1.350       .  A
N215        C216   1.340       .  A
C216        C217   1.388       .  A
C216        H219   1.081       .  S
C217        C248   1.500       .  S
C217        C218   1.395       .  A
C218        H220   1.079       .  S
N221        N222   1.321       .  A
N221        C225   1.348       .  A
N221       Cu229   2.073       .  S
N222        C223   1.344       .  A
N222       Cu228   2.076       .  S
C223        C224   1.385       .  A
C223        H226   1.081       .  S
C224        C305   1.479       .  S
C224        C225   1.384       .  A
C225        H227   1.081       .  S
Cu228       N231   2.076       .  S
Cu229       N239   2.073       .  S
Cu230       N232   2.069       .  S
Cu230       N238   2.068       .  S
N231        N232   1.323       .  A
N231        C235   1.345       .  A
N232        C233   1.343       .  A
C233        C234   1.383       .  A
C233        H236   1.082       .  S
C234        C235   1.382       .  A
C235        H237   1.081       .  S
N238        N239   1.322       .  A
N238        C242   1.348       .  A
N239        C240   1.340       .  A
C240        C241   1.381       .  A
C240        H243   1.082       .  S
C241        C260   1.475       .  S
C241        C242   1.384       .  A
C242        H244   1.082       .  S
C245        C246   1.404       .  A
C245        C250   1.413       .  A
C246        C247   1.410       .  A
C246        H255   1.082       .  S
C247        C248   1.419       .  A
C247        S251   1.806       .  S
C248        C249   1.407       .  A
C249        C250   1.398       .  A
C249        H256   1.079       .  S
C250        S252   1.810       .  S
S251        H254   1.407       .  S
S252        H253   1.407       .  S
C257        C258   1.404   1_545  A
C257        C262   1.410       .  A
C258        C259   1.403       .  A
C258        H267   1.084       .  S
C259        C260   1.415       .  A
C259        S263   1.802       .  S
C260        C261   1.402   1_565  A
C261        C262   1.392       .  A
C261        H268   1.084       .  S
C262        S264   1.805       .  S
S263        H266   1.406       .  S
S264        H265   1.407       .  S
C269        C270   1.404   1_545  A
C269        C274   1.412       .  A
C270        C271   1.401       .  A
C270        H279   1.084       .  S
C271        C272   1.412       .  A
C271        S275   1.802       .  S
C272        C273   1.402   1_565  A
C273        C274   1.395       .  A
C273        H280   1.084       .  S
C274        S276   1.804       .  S
S275        H278   1.406       .  S
S276        H277   1.407       .  S
C281        C282   1.402       .  A
C281        C286   1.411       .  A
C282        C283   1.399       .  A
C282        H291   1.084       .  S
C283        C284   1.414       .  A
C283        S287   1.804       .  S
C284        C285   1.404       .  A
C285        C286   1.398       .  A
C285        H292   1.084       .  S
C286        S288   1.803       .  S
S287        H290   1.408       .  S
S288        H289   1.407       .  S
C293        C294   1.406       .  A
C293        C298   1.414       .  A
C294        C295   1.401       .  A
C294        H303   1.084       .  S
C295        C296   1.414       .  A
C295        S299   1.802       .  S
C296        C297   1.403       .  A
C297        C298   1.399       .  A
C297        H304   1.084       .  S
C298        S300   1.801   1_655  S
S299        H302   1.407   1_565  S
S300        H301   1.406       .  S
C305        C306   1.406       .  A
C305        C310   1.410       .  A
C306        C307   1.408       .  A
C306        H315   1.084       .  S
C307        C308   1.415       .  A
C307        S311   1.802       .  S
C308        C309   1.405       .  A
C309        C310   1.393       .  A
C309        H316   1.084       .  S
C310        S312   1.804       .  S
S311        H314   1.407       .  S
S312        H313   1.407       .  S
C317        C318   1.406       .  A
C317        C322   1.416       .  A
C318        C319   1.394       .  A
C318        H327   1.084       .  S
C319        C320   1.409       .  A
C319        S323   1.804       .  S
C320        C321   1.403       .  A
C321        C322   1.403       .  A
C321        H328   1.084       .  S
C322        S324   1.802       .  S
S323        H326   1.407       .  S
S324        H325   1.407       .  S
C329        C330   1.405       .  A
C329        C334   1.417       .  A
C330        C331   1.394       .  A
C330        H339   1.082       .  S
C331        C332   1.416       .  A
C331        S335   1.804       .  S
C332        C333   1.406       .  A
C333        C334   1.410       .  A
C333        H340   1.082       .  S
C334        S336   1.806       .  S
S335        H338   1.407       .  S
S336        H337   1.407       .  S
C341        C342   1.409   1_655  A
C341        C346   1.421       .  A
C342        C343   1.403   1_455  A
C342        H351   1.081       .  S
C343        C344   1.411       .  A
C343        S347   1.808   1_655  S
C344        C345   1.401       .  A
C345        C346   1.401       .  A
C345        H352   1.083       .  S
C346        S348   1.801       .  S
S347        H350   1.407       .  S
S348        H349   1.408       .  S
C353        C354   1.409   1_655  A
C353        C358   1.421       .  A
C354        C355   1.404   1_455  A
C354        H363   1.083       .  S
C355        C356   1.414       .  A
C355        S359   1.802   1_655  S
C356        C357   1.401       .  A
C357        C358   1.398       .  A
C357        H364   1.084       .  S
C358        S360   1.802       .  S
S359        H362   1.407       .  S
S360        H361   1.408   1_565  S
C365        C366   1.400       .  A
C365        C370   1.409       .  A
C366        C367   1.403       .  A
C366        H375   1.082       .  S
C367        C368   1.419       .  A
C367        S371   1.801       .  S
C368        C369   1.410       .  A
C369        C370   1.403       .  A
C369        H376   1.082       .  S
C370        S372   1.808       .  S
S371        H374   1.408       .  S
S372        H373   1.407   1_455  S
C377        C378   1.402       .  A
C377        C382   1.411       .  A
C378        C379   1.403       .  A
C378        H387   1.084       .  S
C379        C380   1.420       .  A
C379        S383   1.809       .  S
C380        C381   1.408       .  A
C381        C382   1.402       .  A
C381        H388   1.081       .  S
C382        S384   1.808       .  S
S383        H386   1.407       .  S
S384        H385   1.406       .  S
