geometry optimzed in LAMMPS
_audit_creation_date              2020-11-30 
_audit_creation_method            'lammps2cif' 
_symmetry_space_group_name_H-M    'P1' 
_symmetry_Int_Tables_number       1 
_symmetry_cell_setting            triclinic 
loop_ 
_symmetry_equiv_pos_as_xyz 
  x,y,z 
_cell_length_a                    29.85964178243228 
_cell_length_b                    29.813348493835903 
_cell_length_c                    68.29066640235715 
_cell_angle_alpha                 89.96995434759563 
_cell_angle_beta                  89.95800114226486 
_cell_angle_gamma                 88.89009532635026 
loop_ 
_atom_site_label 
_atom_site_type_symbol 
_atom_site_fract_x 
_atom_site_fract_y 
_atom_site_fract_z 
_atom_site_charge 
C1          C  0.32903563  0.49581984  0.31254937     0.07080
C2          C  0.34012343  0.99457861  0.33732977    -0.09070
C3          C  0.38589212  0.00075035  0.33978124     0.04580
C4          C  0.41402213  0.00204983  0.32353713    -0.07600
C5          C  0.40862375  0.49458159  0.30353846     0.07070
C6          C  0.36297854  0.49337533  0.29808298    -0.07020
H7          H  0.31881328  0.99263586  0.35016797     0.12660
H8          H  0.44978961  0.00580604  0.32565568     0.10190
H9          H  0.35395309  0.49101637  0.28275870     0.10040
C10         C  0.20069957  0.50610276  0.31894876     0.07080
C11         C  0.18081566  0.99985723  0.33260837    -0.09070
C12         C  0.13568232  0.99834814  0.33806042     0.04580
C13         C  0.10842970  0.49328033  0.32424982    -0.07600
C14         C  0.12578787  0.49507886  0.30527423     0.07070
C15         C  0.17239693  0.50096256  0.30245448    -0.07020
H16         H  0.20601462  0.00191798  0.34396594     0.12660
H17         H  0.07274672  0.48902083  0.32645464     0.10190
H18         H  0.18602851  0.50312522  0.28779179     0.10040
O19         O  0.47000600  0.03943261  0.39719080    -0.70480
O20         O  0.05793188  0.03678479  0.43769914    -0.70510
O21         O  0.06023876  0.03723266  0.39754881    -0.70560
O22         O  0.46957447  0.03892271  0.43721613    -0.70610
O23         O  0.46399370  0.46278967  0.43757007    -0.70540
O24         O  0.05173466  0.46162880  0.39769053    -0.70520
O25         O  0.05125271  0.46220806  0.43770492    -0.70500
O26         O  0.46257504  0.46359158  0.39739731    -0.70560
Ni27       Ni  0.01449116  0.04079210  0.41727766     1.25410
Ni28       Ni  0.00678710  0.45967574  0.41763354     1.25360
C29         C  0.45589629  0.00237755  0.39035339     0.91700
C30         C  0.06882637  0.99895040  0.44530637     0.91630
C31         C  0.07419545  0.99953005  0.39069091     0.91660
C32         C  0.45728135  0.00163224  0.44453466     0.91830
C33         C  0.32720773  0.99479390  0.72042426     0.07080
C34         C  0.33986784  0.99776687  0.70049939    -0.09070
C35         C  0.38507847  0.99930909  0.69513347     0.04580
C36         C  0.41819078  0.99786334  0.70954382    -0.07600
C37         C  0.39510654  0.49668661  0.72832432     0.07070
C38         C  0.34834589  0.49132417  0.73092799    -0.07020
H39         H  0.31470254  0.99785686  0.68907647     0.12660
H40         H  0.45318920  0.99914860  0.70531245     0.10190
H41         H  0.33468883  0.48653226  0.74545789     0.10040
O42         O  0.04997181  0.03656239  0.63593737    -0.70480
O43         O  0.46148401  0.03842004  0.59515906    -0.70510
O44         O  0.45934041  0.03935171  0.63535949    -0.70560
O45         O  0.05027701  0.03749285  0.59588889    -0.70610
O46         O  0.05794964  0.46263284  0.59577457    -0.70540
O47         O  0.46919520  0.46476429  0.63603986    -0.70520
O48         O  0.46949396  0.46391439  0.59600340    -0.70500
O49         O  0.05944574  0.46339269  0.63595027    -0.70560
Ni50       Ni  0.00535687  0.03997354  0.61584291     1.25410
Ni51       Ni  0.01411823  0.46100070  0.61609205     1.25360
C52         C  0.06443711  0.99884286  0.64255239     0.91700
C53         C  0.45129845  0.00072819  0.58763183     0.91630
C54         C  0.44617432  0.00198629  0.64234837     0.91660
C55         C  0.06290203  0.00009589  0.58833345     0.91830
C56         C  0.19871345  0.00501765  0.71470470     0.07080
C57         C  0.17035631  0.99995680  0.73122271    -0.09070
C58         C  0.12368048  0.99431102  0.72843154     0.04580
C59         C  0.10636060  0.99268850  0.70944661    -0.07600
C60         C  0.13424049  0.99747968  0.69326021     0.07070
C61         C  0.17993359  0.00389241  0.69586114    -0.07020
H62         H  0.16661564  0.49740316  0.75078170     0.12660
H63         H  0.07065658  0.98865267  0.70724451     0.10190
H64         H  0.20103815  0.00837561  0.68309437     0.10040
C65         C  0.32710788  0.00111909  0.51567606     0.07080
C66         C  0.34978352  0.00150382  0.49791166    -0.09070
C67         C  0.39640364  0.00147861  0.49772953     0.04580
C68         C  0.42033652  0.00104167  0.51553330    -0.07760
C69         C  0.39652343  0.00062820  0.53336192     0.07070
C70         C  0.35004912  0.00066512  0.53329999    -0.07020
H71         H  0.33115346  0.00182372  0.48426455     0.12660
H72         H  0.45662919  0.00103407  0.51551202     0.10190
H73         H  0.33161735  0.00037579  0.54701742     0.10040
C74         C  0.01819691  0.31039277  0.81887252     0.07080
C75         C  0.01737580  0.32950424  0.83768366    -0.09070
C76         C  0.01088818  0.37553086  0.84022725     0.04580
C77         C  0.00568233  0.40342179  0.82398881    -0.07600
C78         C  0.00690802  0.38575554  0.80503175     0.07070
C79         C  0.01264912  0.33877382  0.80231984    -0.07020
H80         H  0.02209907  0.30837298  0.85048761     0.12660
H81         H  0.00154132  0.43934825  0.82612169     0.10190
H82         H  0.01437649  0.32486655  0.78768582     0.10040
C83         C  0.00170826  0.49230311  0.76660535     0.01460
C84         C  0.00962247  0.18196372  0.81220548     0.07080
C85         C  0.00997637  0.14815983  0.79765585    -0.09070
C86         C  0.01232002  0.10237415  0.80306471     0.04580
C87         C  0.01334903  0.09059252  0.82286538    -0.07600
C88         C  0.01195652  0.12351619  0.83737315     0.07070
C89         C  0.00993845  0.16886896  0.83211925    -0.07020
H90         H  0.00910577  0.15740066  0.78231259     0.12660
H91         H  0.01504537  0.05545669  0.82702800     0.10190
H92         H  0.00785610  0.19385063  0.84361715     0.10040
C93         C  0.00528080  0.31087700  0.21499029     0.07080
C94         C  0.00808567  0.32954219  0.19614891    -0.09070
C95         C  0.01563672  0.37511978  0.19358231     0.04580
C96         C  0.01987792  0.40299226  0.20980401    -0.07600
C97         C  0.01659827  0.38572876  0.22877109     0.07070
C98         C  0.00981314  0.33917988  0.23153269    -0.07020
H99         H  0.00404261  0.30844772  0.18335174     0.12660
H100        H  0.02476874  0.43864259  0.20763395     0.10190
H101        H  0.00648653  0.32562369  0.24616753     0.10040
O102        O  0.05124983  0.04856581  0.89698750    -0.70480
O103        O  0.05323175  0.45967358  0.93748933    -0.70510
O104        O  0.05117456  0.45845280  0.89738714    -0.70560
O105        O  0.05348340  0.04812330  0.93719636    -0.70610
O106        O  0.47887650  0.05075091  0.93783676    -0.70540
O107        O  0.47625603  0.46049523  0.89805595    -0.70520
O108        O  0.47827511  0.46191842  0.93813404    -0.70500
O109        O  0.47680630  0.05100693  0.89764431    -0.70560
Ni110      Ni  0.05521368  0.50372313  0.91717582     1.25410
Ni111      Ni  0.47492387  0.50599668  0.91783854     1.25360
C112        C  0.01358659  0.06325820  0.89043076     0.91700
C113        C  0.01609850  0.44905452  0.94541701     0.91630
C114        C  0.01331576  0.44540226  0.89100961     0.91660
C115        C  0.01653109  0.06065327  0.94514631     0.91830
C116        C  0.01289531  0.18245245  0.22131213     0.07080
C117        C  0.01305433  0.16975068  0.20135747    -0.09070
C118        C  0.01106505  0.12455622  0.19598133     0.04580
C119        C  0.00903150  0.09149930  0.21039097    -0.07600
C120        C  0.00947629  0.10296116  0.23020970     0.07070
C121        C  0.01195265  0.14849236  0.23576115    -0.07020
H122        H  0.01554978  0.19487481  0.18995728     0.12660
H123        H  0.00736719  0.05649153  0.20613908     0.10190
H124        H  0.01245923  0.15744919  0.25113342     0.10040
O125        O  0.47729971  0.04966505  0.13636650    -0.70480
O126        O  0.47878233  0.46102448  0.09585881    -0.70510
O127        O  0.47834243  0.45963784  0.13593449    -0.70560
O128        O  0.47751732  0.04912484  0.09618285    -0.70610
O129        O  0.05165479  0.04913479  0.09632651    -0.70540
O130        O  0.05344552  0.45953873  0.13622570    -0.70520
O131        O  0.05400670  0.46084387  0.09615467    -0.70500
O132        O  0.05122306  0.04984189  0.13648756    -0.70560
Ni133      Ni  0.47503955  0.50508707  0.11612955     1.25410
Ni134      Ni  0.05504886  0.50496599  0.11642835     1.25360
C135        C  0.01334636  0.06337248  0.14327037     0.91700
C136        C  0.01705041  0.44882290  0.08851156     0.91630
C137        C  0.01636575  0.44504665  0.14286093     0.91660
C138        C  0.01398085  0.06023650  0.08866982     0.91830
C139        C  0.01946711  0.32111709  0.01697580     0.07080
C140        C  0.01890894  0.34398834  0.99927283    -0.09070
C141        C  0.01825287  0.39062885  0.99914130     0.04580
C142        C  0.01816956  0.41451214  0.01696525    -0.07600
C143        C  0.01873824  0.39059318  0.03479113     0.07070
C144        C  0.01937630  0.34396094  0.03467058    -0.07020
H145        H  0.01888604  0.32543684  0.98559316     0.12660
H146        H  0.01759491  0.45086707  0.01696413     0.10190
H147        H  0.01970122  0.32539083  0.04835573     0.10040
C148        C  0.01857172  0.18682384  0.01698893     0.07080
C149        C  0.01901970  0.16403545  0.99928762    -0.09070
C150        C  0.01775295  0.11746053  0.99912271     0.04580
C151        C  0.01607226  0.09351391  0.01692258    -0.07600
C152        C  0.01563033  0.11738387  0.03475527     0.07070
C153        C  0.01687455  0.16396392  0.03465916    -0.07020
H154        H  0.02020956  0.18262453  0.98562372     0.12660
H155        H  0.01507663  0.05719753  0.01689711     0.10190
H156        H  0.01650820  0.18249063  0.04834733     0.10040
C157        C  0.01943771  0.49227238  0.26702457     0.01460
C158        C  0.19309693  0.00064949  0.51717972     0.07080
C159        C  0.17016467  0.99980146  0.49956462    -0.09070
C160        C  0.12370958  0.99920646  0.49952146     0.04580
C161        C  0.09990010  0.99948633  0.51735051    -0.07600
C162        C  0.12381891  0.00032029  0.53514469     0.07070
C163        C  0.17042584  0.00091368  0.53495036    -0.07020
H164        H  0.18858551  0.99959052  0.48584131     0.12660
H165        H  0.06361871  0.99902997  0.51737947     0.10190
H166        H  0.18904916  0.00150824  0.54859207     0.10040
C167        C  0.01972773  0.27385696  0.01699123    -0.09320
C168        C  0.01946356  0.23404722  0.01700910    -0.10880
C169        C  0.01842507  0.41228117  0.05352344    -0.09320
C170        C  0.01797777  0.42666389  0.06997806    -0.10880
C171        C  0.01362255  0.08189573  0.07002477    -0.09320
C172        C  0.01416178  0.09579423  0.05349234    -0.10880
C173        C  0.00727758  0.06682602  0.24432449    -0.09320
C174        C  0.00552441  0.03336299  0.25436227    -0.10880
C175        C  0.01165064  0.11093839  0.17572668    -0.09320
C176        C  0.01230962  0.09266736  0.15996176    -0.10880
C177        C  0.01684629  0.42684396  0.96395690    -0.09320
C178        C  0.01749586  0.41237361  0.98040622    -0.10880
C179        C  0.01754380  0.08222728  0.96379575    -0.09320
C180        C  0.01781306  0.09599519  0.98034757    -0.10880
C181        C  0.99408416  0.26249441  0.21584347    -0.12480
C182        C  0.01554053  0.23104854  0.22672281    -0.27660
H183        H  0.47285395  0.25041671  0.20386145     0.16540
H184        H  0.03769301  0.24093854  0.23849390     0.17110
C185        C  0.01895781  0.45085710  0.25510339    -0.09320
C186        C  0.01807679  0.41796311  0.24464338    -0.10880
C187        C  0.01700194  0.41482509  0.15913303    -0.09320
C188        C  0.01687758  0.39428332  0.17430120    -0.10880
C189        C  0.01291437  0.09194655  0.87351247    -0.09320
C190        C  0.01239705  0.10976330  0.85763208    -0.10880
C191        C  0.01539878  0.03272204  0.77878844    -0.09320
C192        C  0.01392556  0.06628105  0.78883797    -0.10880
C193        C  0.02841857  0.26128267  0.81805807    -0.12480
C194        C  0.00716871  0.23087418  0.80696515    -0.27660
H195        H  0.05050642  0.24867977  0.82954007     0.16540
H196        H  0.48536420  0.24206999  0.79500419     0.17110
C197        C  0.00433439  0.41793124  0.78908425    -0.09320
C198        C  0.00282883  0.45082482  0.77856814    -0.10880
C199        C  0.01137132  0.39494191  0.85948292    -0.09320
C200        C  0.01222647  0.41540122  0.87466770    -0.10880
C201        C  0.24024573  0.00104940  0.51683077    -0.09320
C202        C  0.27994792  0.00116359  0.51601067    -0.10880
C203        C  0.04222507  0.49285467  0.75412524    -0.09320
C204        C  0.07575952  0.49424222  0.74409059    -0.10880
C205        C  0.11500926  0.99769114  0.67400053    -0.09320
C206        C  0.09442840  0.99823831  0.65886432    -0.10880
C207        C  0.41791513  0.00033019  0.55211039    -0.09320
C208        C  0.43088613  0.00032317  0.56876546    -0.10880
C209        C  0.08647270  0.00033405  0.57012341    -0.09320
C210        C  0.10195441  0.00039146  0.55385318    -0.10880
C211        C  0.27859877  0.99214268  0.72584014    -0.12480
C212        C  0.24726043  0.01544622  0.71562399    -0.27660
H213        H  0.25962004  0.45877296  0.70297525     0.16540
H214        H  0.25872708  0.03909347  0.70467632     0.17110
C215        C  0.46034940  0.49335680  0.75460147    -0.09320
C216        C  0.42740783  0.49476696  0.74417719    -0.10880
C217        C  0.39864812  0.00132969  0.67486022    -0.09320
C218        C  0.41682544  0.00211467  0.65905829    -0.10880
C219        C  0.43370405  0.00193229  0.46274392    -0.09320
C220        C  0.41825926  0.00183044  0.47902069    -0.10880
C221        C  0.10231135  0.99847119  0.48079193    -0.09320
C222        C  0.08929791  0.99832893  0.46415060    -0.10880
C223        C  0.09357368  0.49307712  0.28943865    -0.09320
C224        C  0.06066114  0.49220782  0.27902650    -0.10880
C225        C  0.12218343  0.99869910  0.35834433    -0.09320
C226        C  0.10382776  0.99903070  0.37410056    -0.10880
C227        C  0.28032482  0.49385991  0.30725860    -0.12480
C228        C  0.24926275  0.51639060  0.31796785    -0.27660
H229        H  0.26996797  0.47126657  0.29572081     0.16540
H230        H  0.25200588  0.02365484  0.29530369     0.17110
C231        C  0.44488395  0.49291799  0.28939506    -0.09320
C232        C  0.47855395  0.49203993  0.27941951    -0.10880
C233        C  0.42576515  0.00323547  0.37410199    -0.09320
C234        C  0.40505610  0.00292494  0.35900932    -0.10880
C235        C  0.32159172  0.99007911  0.31855291     0.07080
C236        C  0.34185260  0.49782756  0.33246269    -0.09070
C237        C  0.38706563  0.49872194  0.33776374     0.04580
C238        C  0.42011665  0.49739776  0.32331748    -0.07600
C239        C  0.39688356  0.99696291  0.30465567     0.07070
C240        C  0.35018770  0.99150307  0.30197561    -0.07020
H241        H  0.31680360  0.49767373  0.34394548     0.12660
H242        H  0.45514481  0.49813370  0.32752331     0.10190
H243        H  0.33670645  0.98663372  0.28742835     0.10040
C244        C  0.19337306  0.99968367  0.31262976     0.07080
C245        C  0.18191061  0.50481051  0.33781043    -0.09070
C246        C  0.13624713  0.49811546  0.34042362     0.04580
C247        C  0.10255859  0.99680003  0.32369741    -0.07600
C248        C  0.11388391  0.99723445  0.30385660     0.07070
C249        C  0.15935415  0.99924467  0.29823809    -0.07020
H250        H  0.20298031  0.50927939  0.35057368     0.12660
H251        H  0.06761067  0.99544028  0.32800428     0.10190
H252        H  0.16821879  0.99970578  0.28285174     0.10040
O253        O  0.46015799  0.53851443  0.39761335    -0.70480
O254        O  0.05056538  0.53719221  0.43748159    -0.70510
O255        O  0.05102382  0.53658730  0.39745772    -0.70560
O256        O  0.46151442  0.53778068  0.43779314    -0.70610
O257        O  0.46923991  0.96395593  0.43705026    -0.70540
O258        O  0.05996985  0.96232271  0.39740401    -0.70520
O259        O  0.05759082  0.96180698  0.43756379    -0.70500
O260        O  0.46972662  0.96449110  0.39702972    -0.70560
Ni261      Ni  0.00603485  0.54005415  0.41739901     1.25410
Ni262      Ni  0.01415853  0.96043286  0.41709999     1.25360
C263        C  0.44751770  0.50098269  0.39063629     0.91700
C264        C  0.06292677  0.49968369  0.44502027     0.91630
C265        C  0.06549261  0.49886238  0.39086588     0.91660
C266        C  0.45157357  0.50000277  0.44532808     0.91830
C267        C  0.31991591  0.48993507  0.71430714     0.07080
C268        C  0.33872723  0.49441904  0.69555648    -0.09070
C269        C  0.38454823  0.50050110  0.69317308     0.04580
C270        C  0.41248762  0.50172384  0.70946591    -0.07600
C271        C  0.40679930  0.99422142  0.72931819     0.07070
C272        C  0.36123164  0.99219931  0.73481383    -0.07020
H273        H  0.31758155  0.49259124  0.68267603     0.12660
H274        H  0.44828510  0.50544006  0.70740706     0.10190
H275        H  0.35230897  0.98917751  0.75013302     0.10040
O276        O  0.05910562  0.53831298  0.63571014    -0.70480
O277        O  0.46914801  0.53888981  0.59569652    -0.70510
O278        O  0.46877237  0.53971629  0.63574407    -0.70560
O279        O  0.05765635  0.53762218  0.59552492    -0.70610
O280        O  0.05131211  0.96250986  0.59559265    -0.70540
O281        O  0.46098347  0.96443075  0.63566346    -0.70520
O282        O  0.46320994  0.96342913  0.59547296    -0.70500
O283        O  0.05102644  0.96160736  0.63561872    -0.70560
Ni284      Ni  0.01377469  0.54137010  0.61580422     1.25410
Ni285      Ni  0.00648564  0.95960275  0.61552941     1.25360
C286        C  0.07310854  0.50075138  0.64270843     0.91700
C287        C  0.45732713  0.50142325  0.58841126     0.91630
C288        C  0.45494560  0.50257222  0.64263319     0.91660
C289        C  0.06899323  0.49982939  0.58800375     0.91830
C290        C  0.19143507  0.49869639  0.72092530     0.07080
C291        C  0.15754801  0.49769543  0.73542206    -0.09070
C292        C  0.11192721  0.49626359  0.72992962     0.04580
C293        C  0.10039248  0.49676966  0.71010487    -0.07600
C294        C  0.13337052  0.49884752  0.69566469     0.07070
C295        C  0.17855181  0.49998674  0.70100085    -0.07020
H296        H  0.18399591  0.00205969  0.74587675     0.12660
H297        H  0.06539400  0.49577448  0.70587223     0.10190
H298        H  0.20353296  0.50264835  0.68956693     0.10040
C299        C  0.32727385  0.50102977  0.51732835     0.07080
C300        C  0.35015398  0.50034145  0.49967961    -0.09070
C301        C  0.39662499  0.49989432  0.49956550     0.04580
C302        C  0.42051092  0.50013894  0.51736031    -0.07760
C303        C  0.39664348  0.50080800  0.53519390     0.07070
C304        C  0.35001169  0.50123446  0.53506668    -0.07020
H305        H  0.33167686  0.50018826  0.48598297     0.12660
H306        H  0.45680802  0.49984880  0.51733232     0.10190
H307        H  0.33142274  0.50173841  0.54873459     0.10040
C308        C  0.01989489  0.81013692  0.81881290     0.07080
C309        C  0.01725905  0.82902002  0.83764715    -0.09070
C310        C  0.01197981  0.87521944  0.84017805     0.04580
C311        C  0.00981790  0.90339811  0.82390821    -0.07600
C312        C  0.01306075  0.88587771  0.80495967     0.07070
C313        C  0.01753339  0.83881920  0.80225451    -0.07020
H314        H  0.01982698  0.80759254  0.85046109     0.12660
H315        H  0.00671602  0.93941059  0.82603359     0.10190
H316        H  0.02091591  0.82501311  0.78764994     0.10040
C317        C  0.01649566  0.99208309  0.76638696     0.01460
C318        C  0.00794418  0.68206065  0.81237381     0.07080
C319        C  0.00472115  0.64832931  0.79787744    -0.09070
C320        C  0.00531671  0.60250315  0.80327653     0.04580
C321        C  0.00836922  0.59065643  0.82302952    -0.07600
C322        C  0.01048146  0.62354909  0.83749927     0.07070
C323        C  0.01009331  0.66890499  0.83225856    -0.07020
H324        H  0.00225951  0.65763034  0.78257109     0.12660
H325        H  0.00874016  0.55550874  0.82719563     0.10190
H326        H  0.01048744  0.69384134  0.84378502     0.10040
C327        C  0.00372278  0.81061263  0.21508792     0.07080
C328        C  0.00828620  0.82908528  0.19627285    -0.09070
C329        C  0.01444625  0.87495204  0.19374188     0.04580
C330        C  0.01554489  0.90319983  0.20996895    -0.07600
C331        C  0.01031835  0.88608752  0.22887586     0.07070
C332        C  0.00495658  0.83933957  0.23161013    -0.07020
H333        H  0.00649036  0.80763992  0.18347649     0.12660
H334        H  0.01928009  0.93901820  0.20781898     0.10190
H335        H  0.00002932  0.82589280  0.24617361     0.10040
O336        O  0.05182510  0.54872706  0.89710380    -0.70480
O337        O  0.05282495  0.95960585  0.93742134    -0.70510
O338        O  0.05052050  0.95826618  0.89731313    -0.70560
O339        O  0.05381199  0.54820373  0.93730295    -0.70610
O340        O  0.47894517  0.55043009  0.93784361    -0.70540
O341        O  0.47579912  0.96072991  0.89806127    -0.70520
O342        O  0.47794841  0.96225569  0.93815482    -0.70500
O343        O  0.47699717  0.55073333  0.89768421    -0.70560
Ni344      Ni  0.05471717  0.00359700  0.91707881     1.25410
Ni345      Ni  0.47466330  0.00630150  0.91783313     1.25360
C346        C  0.01417304  0.56338139  0.89052395     0.91700
C347        C  0.01572932  0.94906425  0.94540398     0.91630
C348        C  0.01262701  0.94520093  0.89097482     0.91660
C349        C  0.01680142  0.56070124  0.94520818     0.91830
C350        C  0.01453726  0.68222187  0.22131603     0.07080
C351        C  0.01289307  0.66936500  0.20139855    -0.09070
C352        C  0.01252690  0.62405336  0.19610387     0.04580
C353        C  0.01398356  0.59097693  0.21055192    -0.07600
C354        C  0.01642943  0.60255547  0.23032829     0.07070
C355        C  0.01714641  0.64826987  0.23578340    -0.07020
H356        H  0.01295482  0.69445282  0.18991687     0.12660
H357        H  0.01365111  0.55587347  0.20635163     0.10190
H358        H  0.01923143  0.65734091  0.25111305     0.10040
O359        O  0.47668013  0.54996245  0.13622669    -0.70480
O360        O  0.47916550  0.96058092  0.09606528    -0.70510
O361        O  0.47900930  0.95930500  0.13615962    -0.70560
O362        O  0.47717288  0.54957163  0.09603482    -0.70610
O363        O  0.05130614  0.54938874  0.09633001    -0.70540
O364        O  0.05399357  0.95945113  0.13633873    -0.70520
O365        O  0.05434973  0.96058803  0.09624059    -0.70500
O366        O  0.05066584  0.54986299  0.13648564    -0.70560
Ni367      Ni  0.47554764  0.00469784  0.11631630     1.25410
Ni368      Ni  0.05549897  0.00480587  0.11647773     1.25360
C369        C  0.01276665  0.56330541  0.14327550     0.91700
C370        C  0.01735597  0.94858240  0.08862508     0.91630
C371        C  0.01693928  0.94497010  0.14301654     0.91660
C372        C  0.01366602  0.56051428  0.08865377     0.91830
C373        C  0.01950635  0.82124785  0.01697446     0.07080
C374        C  0.01887498  0.84416490  0.99928464    -0.09070
C375        C  0.01818010  0.89080456  0.99917558     0.04580
C376        C  0.01814433  0.91463819  0.01701636    -0.07600
C377        C  0.01879201  0.89066189  0.03483192     0.07070
C378        C  0.01945643  0.84403271  0.03468175    -0.07020
H379        H  0.01881505  0.82564697  0.98559628     0.12660
H380        H  0.01754405  0.95099224  0.01703594     0.10190
H381        H  0.01983712  0.82541600  0.04835521     0.10040
C382        C  0.01858633  0.68698171  0.01697249     0.07080
C383        C  0.01903921  0.66416389  0.99928126    -0.09070
C384        C  0.01774735  0.61759419  0.99913818     0.04580
C385        C  0.01601901  0.59368118  0.01694028    -0.07600
C386        C  0.01556189  0.61758960  0.03475788     0.07070
C387        C  0.01684791  0.66416211  0.03464902    -0.07020
H388        H  0.02026395  0.68272285  0.98561018     0.12660
H389        H  0.01500009  0.55736503  0.01692788     0.10190
H390        H  0.01647306  0.68271339  0.04833099     0.10040
C391        C  0.00452556  0.99309098  0.26691489     0.01460
C392        C  0.19326721  0.50094134  0.51598980     0.07080
C393        C  0.17049192  0.50076282  0.49826081    -0.09070
C394        C  0.12388704  0.50003632  0.49815845     0.04580
C395        C  0.10008351  0.49950152  0.51599939    -0.07600
C396        C  0.12400242  0.49966224  0.53378217     0.07070
C397        C  0.17044781  0.50039022  0.53365010    -0.07020
H398        H  0.18902921  0.50113340  0.48458280     0.12660
H399        H  0.06380505  0.49895651  0.51604182     0.10190
H400        H  0.18895042  0.50049920  0.54734016     0.10040
C401        C  0.01978211  0.77399626  0.01696510    -0.09320
C402        C  0.01950920  0.73419278  0.01697784    -0.10880
C403        C  0.01854931  0.91226362  0.05358702    -0.09320
C404        C  0.01818632  0.92651688  0.07006585    -0.10880
C405        C  0.01339717  0.58218771  0.07002417    -0.09320
C406        C  0.01401636  0.59604670  0.05349259    -0.10880
C407        C  0.01815206  0.56633478  0.24448763    -0.09320
C408        C  0.01902239  0.53275261  0.25452977    -0.10880
C409        C  0.01164512  0.61041371  0.17585795    -0.09320
C410        C  0.01173564  0.59234400  0.16004967    -0.10880
C411        C  0.01656852  0.92697327  0.96397721    -0.09320
C412        C  0.01731569  0.91257482  0.98044153    -0.10880
C413        C  0.01768751  0.58229847  0.96384137    -0.09320
C414        C  0.01786574  0.59609256  0.98038258    -0.10880
C415        C  0.99346146  0.76200956  0.21591599    -0.12480
C416        C  0.01599178  0.73098693  0.22664661    -0.27660
H417        H  0.47185079  0.74973239  0.20414029     0.16540
H418        H  0.03821999  0.74148305  0.23828694     0.17110
C419        C  0.00623300  0.95153944  0.25508261    -0.09320
C420        C  0.00808150  0.91857143  0.24466171    -0.10880
C421        C  0.01757825  0.91470262  0.15930208    -0.09320
C422        C  0.01695697  0.89406394  0.17445604    -0.10880
C423        C  0.01348305  0.59204643  0.87361438    -0.09320
C424        C  0.01238791  0.60980757  0.85773409    -0.10880
C425        C  0.00190598  0.53283308  0.77907680    -0.09320
C426        C  0.00301180  0.56641114  0.78909698    -0.10880
C427        C  0.02934889  0.76093396  0.81796506    -0.12480
C428        C  0.00671507  0.73101108  0.80714241    -0.27660
H429        H  0.05171589  0.74806231  0.82927987     0.16540
H430        H  0.48500021  0.74285768  0.79541021     0.17110
C431        C  0.01415855  0.91812646  0.78904458    -0.09320
C432        C  0.01537928  0.95082926  0.77844965    -0.10880
C433        C  0.01115130  0.89453803  0.85947160    -0.09320
C434        C  0.01150141  0.91508518  0.87465188    -0.10880
C435        C  0.24041090  0.50140204  0.51625664    -0.09320
C436        C  0.28011344  0.50140817  0.51704134    -0.10880
C437        C  0.05824627  0.99182664  0.75464525    -0.09320
C438        C  0.09134401  0.99249348  0.74428741    -0.10880
C439        C  0.11983028  0.49994657  0.67539065    -0.09320
C440        C  0.10202227  0.50051452  0.65952359    -0.10880
C441        C  0.41857112  0.50111140  0.55387745    -0.09320
C442        C  0.43398068  0.50136277  0.57015324    -0.10880
C443        C  0.08968170  0.49924475  0.56919518    -0.09320
C444        C  0.10271690  0.49921762  0.55254988    -0.10880
C445        C  0.27129649  0.47971811  0.71487725    -0.12480
C446        C  0.24015375  0.50026645  0.72626361    -0.27660
H447        H  0.26853992  0.96862909  0.73709071     0.16540
H448        H  0.25039668  0.52084414  0.73852454     0.17110
C449        C  0.47633427  0.99210378  0.75362773    -0.09320
C450        C  0.44300405  0.99268171  0.74346309    -0.10880
C451        C  0.40392187  0.50279256  0.67396377    -0.09320
C452        C  0.42470599  0.50325116  0.65887310    -0.10880
C453        C  0.43093806  0.49944675  0.46414570    -0.09320
C454        C  0.41794500  0.49943679  0.48079889    -0.10880
C455        C  0.10190022  0.49980531  0.47949517    -0.09320
C456        C  0.08637801  0.49970121  0.46324393    -0.10880
C457        C  0.07771277  0.99534077  0.28977820    -0.09320
C458        C  0.04440092  0.99380045  0.27967500    -0.10880
C459        C  0.11691126  0.49799591  0.35966685    -0.09320
C460        C  0.09595456  0.49830090  0.37471232    -0.10880
C461        C  0.27311489  0.97958469  0.31788384    -0.12480
C462        C  0.24190444  0.00163610  0.30711546    -0.27660
H463        H  0.26157707  0.95746045  0.32941608     0.16540
H464        H  0.26098937  0.53927025  0.32915207     0.17110
C465        C  0.42938912  0.99498035  0.28887898    -0.09320
C466        C  0.46261273  0.99349437  0.27861823    -0.10880
C467        C  0.41851340  0.50080471  0.37385806    -0.09320
C468        C  0.40060449  0.50016002  0.35802162    -0.10880
C469        C  0.82922134  0.49934917  0.31247763     0.07080
C470        C  0.84026754  0.99489333  0.33724367    -0.09070
C471        C  0.88601837  0.00118578  0.33967676     0.04580
C472        C  0.91408310  0.00275168  0.32341782    -0.07600
C473        C  0.90881774  0.49749007  0.30349440     0.07070
C474        C  0.86315470  0.49880014  0.29798697    -0.07020
H475        H  0.81901943  0.99274365  0.35009415     0.12660
H476        H  0.94984577  0.00658268  0.32552235     0.10190
H477        H  0.85411973  0.49868644  0.28262391     0.10040
C478        C  0.70126704  0.48968614  0.31909297     0.07080
C479        C  0.68087705  0.99974546  0.33261439    -0.09070
C480        C  0.63576248  0.99803948  0.33808950     0.04580
C481        C  0.60824801  0.50101620  0.32405854    -0.07600
C482        C  0.62568863  0.49576828  0.30519436     0.07070
C483        C  0.67264271  0.49064879  0.30252198    -0.07020
H484        H  0.70609238  0.00200613  0.34395623     0.12660
H485        H  0.57230660  0.50456928  0.32616327     0.10190
H486        H  0.68638183  0.48570695  0.28798424     0.10040
O487        O  0.96999657  0.03945982  0.39715293    -0.70480
O488        O  0.55800023  0.03680979  0.43772217    -0.70510
O489        O  0.56027386  0.03720288  0.39756380    -0.70560
O490        O  0.96950639  0.03889003  0.43717786    -0.70610
O491        O  0.96282730  0.46309731  0.43788388    -0.70540
O492        O  0.55274820  0.46482659  0.39732590    -0.70520
O493        O  0.55236953  0.46396925  0.43734245    -0.70500
O494        O  0.96152574  0.46258495  0.39770739    -0.70560
Ni495      Ni  0.51453882  0.04079451  0.41730397     1.25410
Ni496      Ni  0.50794192  0.46109041  0.41727554     1.25360
C497        C  0.95591895  0.00241861  0.39029038     0.91700
C498        C  0.56888566  0.99898096  0.44533899     0.91630
C499        C  0.57423019  0.99948772  0.39071605     0.91660
C500        C  0.95720632  0.00159200  0.44448573     0.91830
C501        C  0.82730749  0.00020938  0.72048431     0.07080
C502        C  0.84006210  0.00049780  0.70052640    -0.09070
C503        C  0.88530619  0.99888153  0.69513982     0.04580
C504        C  0.91837484  0.99717224  0.70956489    -0.07600
C505        C  0.89512291  0.49671588  0.72837046     0.07070
C506        C  0.84835512  0.49134579  0.73095636    -0.07020
H507        H  0.81490046  0.00270143  0.68912349     0.12660
H508        H  0.95340501  0.99571227  0.70531144     0.10190
H509        H  0.83467127  0.48654268  0.74548063     0.10040
O510        O  0.54955786  0.03970035  0.63564849    -0.70480
O511        O  0.96185890  0.03794662  0.59540860    -0.70510
O512        O  0.95974291  0.03706261  0.63560697    -0.70560
O513        O  0.54989505  0.03862874  0.59560369    -0.70610
O514        O  0.55790955  0.46263714  0.59574496    -0.70540
O515        O  0.96925423  0.46480636  0.63607719    -0.70520
O516        O  0.96951694  0.46398748  0.59604381    -0.70500
O517        O  0.55939287  0.46340599  0.63592184    -0.70560
Ni518      Ni  0.50494420  0.04173057  0.61554884     1.25410
Ni519      Ni  0.51407563  0.46097730  0.61605995     1.25360
C520        C  0.56428649  0.00244235  0.64262239     0.91700
C521        C  0.95132393  0.00066242  0.58758917     0.91630
C522        C  0.94631495  0.99953239  0.64231011     0.91660
C523        C  0.56287086  0.00097806  0.58839363     0.91830
C524        C  0.69918407  0.99053736  0.71445438     0.07080
C525        C  0.67060292  0.99153699  0.73107257    -0.09070
C526        C  0.62358638  0.99638715  0.72845661     0.04580
C527        C  0.60608068  0.00128022  0.70958661    -0.07600
C528        C  0.63417124  0.00042249  0.69330444     0.07070
C529        C  0.68026729  0.99488966  0.69570524    -0.07020
H530        H  0.66660978  0.49740903  0.75073791     0.12660
H531        H  0.57012111  0.00459675  0.70750836     0.10190
H532        H  0.70157559  0.99329531  0.68283625     0.10040
C533        C  0.82709351  0.00130459  0.51566014     0.07080
C534        C  0.84974032  0.00151115  0.49788673    -0.09070
C535        C  0.89635810  0.00165466  0.49768889     0.04580
C536        C  0.92031562  0.00156553  0.51548578    -0.07760
C537        C  0.89652873  0.00135854  0.53332265     0.07070
C538        C  0.85005978  0.00121191  0.53327615    -0.07020
H539        H  0.83109063  0.00156359  0.48424559     0.12660
H540        H  0.95660612  0.00166446  0.51545295     0.10190
H541        H  0.83165056  0.00103795  0.54700042     0.10040
C542        C  0.51838259  0.31044623  0.81875237     0.07080
C543        C  0.51750855  0.32945364  0.83758594    -0.09070
C544        C  0.51090130  0.37546070  0.84017540     0.04580
C545        C  0.50565973  0.40342238  0.82396052    -0.07600
C546        C  0.50696448  0.38585627  0.80498668     0.07070
C547        C  0.51280431  0.33890480  0.80222978    -0.07020
H548        H  0.52226745  0.30825805  0.85036700     0.12660
H549        H  0.50143390  0.43933033  0.82612530     0.10190
H550        H  0.51458101  0.32507754  0.78758209     0.10040
C551        C  0.50171479  0.49238696  0.76654124     0.01460
C552        C  0.50961766  0.18206637  0.81205117     0.07080
C553        C  0.50946436  0.14825965  0.79750210    -0.09070
C554        C  0.51162248  0.10245804  0.80290430     0.04580
C555        C  0.51299897  0.09068024  0.82270389    -0.07600
C556        C  0.51211952  0.12361504  0.83721170     0.07070
C557        C  0.51027583  0.16896866  0.83196166    -0.07020
H558        H  0.50833768  0.15750669  0.78216244     0.12660
H559        H  0.51457311  0.05554142  0.82686647     0.10190
H560        H  0.50855372  0.19395161  0.84346727     0.10040
C561        C  0.50541048  0.31052341  0.21471252     0.07080
C562        C  0.50776793  0.32942084  0.19589046    -0.09070
C563        C  0.51514320  0.37505827  0.19337757     0.04580
C564        C  0.51966010  0.40275660  0.20963796    -0.07600
C565        C  0.51684808  0.38527601  0.22858236     0.07070
C566        C  0.51023540  0.33867916  0.23128595    -0.07020
H567        H  0.50357152  0.30845482  0.18306406     0.12660
H568        H  0.52443492  0.43844170  0.20752070     0.10190
H569        H  0.50728147  0.32497426  0.24591038     0.10040
O570        O  0.55159652  0.04879632  0.89690001    -0.70480
O571        O  0.55312709  0.45984735  0.93740173    -0.70510
O572        O  0.55107108  0.45846467  0.89730553    -0.70560
O573        O  0.55372332  0.04847358  0.93711787    -0.70610
O574        O  0.97863434  0.05019036  0.93794649    -0.70540
O575        O  0.97635819  0.46040131  0.89814554    -0.70520
O576        O  0.97838184  0.46168468  0.93823000    -0.70500
O577        O  0.97645970  0.05055046  0.89776246    -0.70560
Ni578      Ni  0.55515170  0.50381362  0.91706018     1.25410
Ni579      Ni  0.97498589  0.50582859  0.91795200     1.25360
C580        C  0.51398734  0.06356764  0.89031638     0.91700
C581        C  0.51597800  0.44928372  0.94532880     0.91630
C582        C  0.51320330  0.44541592  0.89093703     0.91660
C583        C  0.51678931  0.06110819  0.94505520     0.91830
C584        C  0.51293613  0.18201545  0.22143640     0.07080
C585        C  0.51382047  0.16913609  0.20150928    -0.09070
C586        C  0.51204514  0.12392761  0.19617673     0.04580
C587        C  0.50965296  0.09094597  0.21060375    -0.07600
C588        C  0.50947857  0.10252630  0.23041417     0.07070
C589        C  0.51161175  0.14813360  0.23592708    -0.07020
H590        H  0.51668298  0.19414079  0.19007982     0.12660
H591        H  0.50818451  0.05591201  0.20637318     0.10190
H592        H  0.51160217  0.15719845  0.25128963     0.10040
O593        O  0.97644116  0.04909356  0.13634585    -0.70480
O594        O  0.97916867  0.46004438  0.09596546    -0.70510
O595        O  0.97863807  0.45876929  0.13603985    -0.70560
O596        O  0.97681610  0.04833262  0.09617502    -0.70610
O597        O  0.55237430  0.04907114  0.09628203    -0.70540
O598        O  0.55316905  0.45951187  0.13608493    -0.70520
O599        O  0.55364401  0.46092750  0.09601436    -0.70500
O600        O  0.55210472  0.04956020  0.13646276    -0.70560
Ni601      Ni  0.97483255  0.50412699  0.11621922     1.25410
Ni602      Ni  0.55527813  0.50496505  0.11630534     1.25360
C603        C  0.51439611  0.06340612  0.14330640     0.91700
C604        C  0.51651734  0.44935691  0.08839025     0.91630
C605        C  0.51592894  0.44544641  0.14273504     0.91660
C606        C  0.51479552  0.06061391  0.08865024     0.91830
C607        C  0.51919928  0.32152282  0.01691520     0.07080
C608        C  0.51874705  0.34436577  0.99920660    -0.09070
C609        C  0.51791492  0.39100393  0.99906408     0.04580
C610        C  0.51755908  0.41491906  0.01687673    -0.07600
C611        C  0.51802422  0.39102889  0.03470628     0.07070
C612        C  0.51883196  0.34439604  0.03460300    -0.07020
H613        H  0.51893969  0.32579425  0.98553116     0.12660
H614        H  0.51686875  0.45127493  0.01686410     0.10190
H615        H  0.51909576  0.32585044  0.04829433     0.10040
C616        C  0.51881767  0.18721897  0.01693196     0.07080
C617        C  0.51919160  0.16443900  0.99922814    -0.09070
C618        C  0.51812701  0.11785409  0.99906043     0.04580
C619        C  0.51671376  0.09389209  0.01686691    -0.07600
C620        C  0.51634689  0.11775510  0.03470624     0.07070
C621        C  0.51738931  0.16434502  0.03460501    -0.07020
H622        H  0.52017852  0.18304313  0.98556390     0.12660
H623        H  0.51586748  0.05756986  0.01684155     0.10190
H624        H  0.51707140  0.18287145  0.04829322     0.10040
C625        C  0.51920836  0.49145421  0.26703150     0.01460
C626        C  0.69309619  0.00037308  0.51722506     0.07080
C627        C  0.67015032  0.99964036  0.49961252    -0.09070
C628        C  0.62369800  0.99900836  0.49957312     0.04580
C629        C  0.59990035  0.99916303  0.51740637    -0.07600
C630        C  0.62383048  0.99990767  0.53520073     0.07070
C631        C  0.67044002  0.00049697  0.53500003    -0.07020
H632        H  0.68856028  0.99956382  0.48588658     0.12660
H633        H  0.56361815  0.99874154  0.51743807     0.10190
H634        H  0.68907372  0.00106366  0.54863926     0.10040
C635        C  0.51964101  0.27426236  0.01693985    -0.09320
C636        C  0.51952576  0.23444947  0.01695420    -0.10880
C637        C  0.51754719  0.41275539  0.05342347    -0.09320
C638        C  0.51714332  0.42717883  0.06986732    -0.10880
C639        C  0.51460862  0.08228016  0.06999670    -0.09320
C640        C  0.51510199  0.09616386  0.05345592    -0.10880
C641        C  0.50708793  0.06640009  0.24454008    -0.09320
C642        C  0.50535033  0.03283643  0.25452449    -0.10880
C643        C  0.51302313  0.11031969  0.17592919    -0.09320
C644        C  0.51371122  0.09235666  0.16010220    -0.10880
C645        C  0.51668463  0.42713569  0.96387510    -0.09320
C646        C  0.51725626  0.41271399  0.98032853    -0.10880
C647        C  0.51783287  0.08266331  0.96371531    -0.09320
C648        C  0.51814287  0.09640258  0.98027546    -0.10880
C649        C  0.49454633  0.26202028  0.21551223    -0.12480
C650        C  0.51524563  0.23072039  0.22675761    -0.27660
H651        H  0.97173016  0.25108244  0.20439699     0.16540
H652        H  0.53656995  0.24077664  0.23879149     0.17110
C653        C  0.51934799  0.45017164  0.25501476    -0.09320
C654        C  0.51856260  0.41735835  0.24450488    -0.10880
C655        C  0.51626585  0.41513921  0.15898920    -0.09320
C656        C  0.51612221  0.39444166  0.17412380    -0.10880
C657        C  0.51341455  0.09216110  0.87336975    -0.09320
C658        C  0.51282445  0.10989250  0.85747248    -0.10880
C659        C  0.51440500  0.03273806  0.77864975    -0.09320
C660        C  0.51284747  0.06634479  0.78867438    -0.10880
C661        C  0.52867554  0.26135798  0.81786823    -0.12480
C662        C  0.50722447  0.23098987  0.80682559    -0.27660
H663        H  0.55093341  0.24873228  0.82928249     0.16540
H664        H  0.98549850  0.24189351  0.79506739     0.17110
C665        C  0.50437007  0.41809125  0.78906414    -0.09320
C666        C  0.50284628  0.45097073  0.77854160    -0.10880
C667        C  0.51130332  0.39480837  0.85944811    -0.09320
C668        C  0.51210579  0.41531852  0.87462347    -0.10880
C669        C  0.74024177  0.00089594  0.51686338    -0.09320
C670        C  0.77993799  0.00115448  0.51601626    -0.10880
C671        C  0.54222817  0.49288187  0.75406264    -0.09320
C672        C  0.57576870  0.49424113  0.74403338    -0.10880
C673        C  0.61482845  0.00252070  0.67407891    -0.09320
C674        C  0.59423407  0.00292089  0.65894506    -0.10880
C675        C  0.91793925  0.00128804  0.55206562    -0.09320
C676        C  0.93090523  0.00111241  0.56872144    -0.10880
C677        C  0.58646804  0.00055181  0.57018357    -0.09320
C678        C  0.60196606  0.00017748  0.55391345    -0.10880
C679        C  0.77859626  0.00213920  0.72592712    -0.12480
C680        C  0.74821585  0.98046669  0.71500986    -0.27660
H681        H  0.75968702  0.45878797  0.70296422     0.16540
H682        H  0.76065031  0.95872718  0.70336005     0.17110
C683        C  0.96034004  0.49333947  0.75466333    -0.09320
C684        C  0.92740483  0.49477967  0.74423341    -0.10880
C685        C  0.89890318  0.99918024  0.67485110    -0.09320
C686        C  0.91703145  0.99935108  0.65903495    -0.10880
C687        C  0.93362297  0.00188531  0.46269373    -0.09320
C688        C  0.91818702  0.00185876  0.47897261    -0.10880
C689        C  0.60229883  0.99841498  0.48084061    -0.09320
C690        C  0.58932039  0.99835817  0.46419260    -0.10880
C691        C  0.59336049  0.49346708  0.28941048    -0.09320
C692        C  0.56043454  0.49198444  0.27902506    -0.10880
C693        C  0.62227733  0.99852229  0.35837846    -0.09320
C694        C  0.60388925  0.99894605  0.37412990    -0.10880
C695        C  0.78045604  0.50068676  0.30714153    -0.12480
C696        C  0.75028080  0.47963062  0.31844085    -0.27660
H697        H  0.76925599  0.52153259  0.29498326     0.16540
H698        H  0.75184622  0.02377781  0.29525960     0.17110
C699        C  0.94508781  0.49556312  0.28935869    -0.09320
C700        C  0.97876389  0.49383435  0.27939704    -0.10880
C701        C  0.92587808  0.00332743  0.37400862    -0.09320
C702        C  0.90522552  0.00315767  0.35890061    -0.10880
C703        C  0.82167637  0.99050866  0.31847378     0.07080
C704        C  0.84201721  0.50031857  0.33240818    -0.09070
C705        C  0.88723035  0.49929990  0.33775288     0.04580
C706        C  0.92030886  0.49769187  0.32332033    -0.07600
C707        C  0.89689709  0.99777115  0.30453824     0.07070
C708        C  0.85020732  0.99218035  0.30187843    -0.07020
H709        H  0.81690598  0.50258898  0.34384275     0.12660
H710        H  0.95534170  0.49672551  0.32756171     0.10190
H711        H  0.83669486  0.98737046  0.28733284     0.10040
C712        C  0.69338826  0.99953129  0.31262826     0.07080
C713        C  0.68244089  0.49434607  0.33786514    -0.09070
C714        C  0.63637205  0.50021223  0.34030495     0.04580
C715        C  0.60262304  0.99622564  0.32374071    -0.07600
C716        C  0.61390048  0.99662020  0.30389415     0.07070
C717        C  0.65934208  0.99883672  0.29825372    -0.07020
H718        H  0.70378517  0.49280981  0.35071100     0.12660
H719        H  0.56769324  0.99473230  0.32806314     0.10190
H720        H  0.66816703  0.99928409  0.28286292     0.10040
O721        O  0.96080430  0.53751166  0.39749627    -0.70480
O722        O  0.54990421  0.53894871  0.43761542    -0.70510
O723        O  0.55034937  0.53978031  0.39758409    -0.70560
O724        O  0.96213407  0.53809336  0.43767866    -0.70610
O725        O  0.96916847  0.96392357  0.43699396    -0.70540
O726        O  0.55999439  0.96229441  0.39744009    -0.70520
O727        O  0.55765685  0.96183255  0.43760008    -0.70500
O728        O  0.96971564  0.96451807  0.39696588    -0.70560
Ni729      Ni  0.50532479  0.54146325  0.41753979     1.25410
Ni730      Ni  0.51420357  0.96043623  0.41714763     1.25360
C731        C  0.94735040  0.50009033  0.39071923     0.91700
C732        C  0.56313454  0.50146699  0.44491192     0.91630
C733        C  0.56564275  0.50261776  0.39074145     0.91660
C734        C  0.95129684  0.50080776  0.44542797     0.91830
C735        C  0.81995466  0.48996185  0.71432412     0.07080
C736        C  0.83880130  0.49445671  0.69558163    -0.09070
C737        C  0.88462460  0.50054550  0.69321544     0.04580
C738        C  0.91253524  0.50176517  0.70951795    -0.07600
C739        C  0.90688013  0.99754101  0.72939966     0.07070
C740        C  0.86125330  0.99960513  0.73493371    -0.07020
H741        H  0.81768072  0.49263146  0.68269310     0.12660
H742        H  0.94833575  0.50548506  0.70747104     0.10190
H743        H  0.85223612  0.99996677  0.75030463     0.10040
O744        O  0.55899056  0.53832628  0.63568256    -0.70480
O745        O  0.96921613  0.53896362  0.59575647    -0.70510
O746        O  0.96889632  0.53975807  0.63579549    -0.70560
O747        O  0.55757423  0.53762778  0.59549699    -0.70610
O748        O  0.55160978  0.96364807  0.59599807    -0.70540
O749        O  0.96081959  0.96214102  0.63532985    -0.70520
O750        O  0.96290248  0.96295560  0.59513701    -0.70500
O751        O  0.55118167  0.96474618  0.63603571    -0.70560
Ni752      Ni  0.51367372  0.54134681  0.61576396     1.25410
Ni753      Ni  0.50673920  0.96136171  0.61592873     1.25360
C754        C  0.57303258  0.50077417  0.64267887     0.91700
C755        C  0.95734138  0.50151722  0.58847291     0.91630
C756        C  0.95504323  0.50261900  0.64267976     0.91660
C757        C  0.56890859  0.49984335  0.58796968     0.91830
C758        C  0.69145095  0.49869477  0.72088553     0.07080
C759        C  0.65755466  0.49769115  0.73537674    -0.09070
C760        C  0.61194156  0.49624898  0.72987800     0.04580
C761        C  0.60041657  0.49675229  0.71005317    -0.07600
C762        C  0.63339855  0.49883702  0.69561575     0.07070
C763        C  0.67858182  0.49997437  0.70095755    -0.07020
H764        H  0.68442592  0.98680090  0.74560155     0.12660
H765        H  0.56541928  0.49575825  0.70581813     0.10190
H766        H  0.70357237  0.50263454  0.68952767     0.10040
C767        C  0.82712349  0.50088689  0.51744190     0.07080
C768        C  0.84998445  0.50100860  0.49979181    -0.09070
C769        C  0.89643889  0.50122676  0.49967535     0.04580
C770        C  0.92033195  0.50131094  0.51746735    -0.07760
C771        C  0.89648114  0.50120201  0.53530248     0.07070
C772        C  0.84986080  0.50097273  0.53518062    -0.07020
H773        H  0.83150397  0.50094347  0.48609511     0.12660
H774        H  0.95662090  0.50148162  0.51743637     0.10190
H775        H  0.83128343  0.50089470  0.54885043     0.10040
C776        C  0.52019007  0.81018976  0.81885275     0.07080
C777        C  0.51738820  0.82905189  0.83768950    -0.09070
C778        C  0.51224412  0.87526906  0.84022020     0.04580
C779        C  0.51039402  0.90346458  0.82395282    -0.07600
C780        C  0.51381007  0.88594584  0.80501201     0.07070
C781        C  0.51813085  0.83889077  0.80230092    -0.07020
H782        H  0.51973012  0.80759887  0.85050183     0.12660
H783        H  0.50738228  0.93948413  0.82607626     0.10190
H784        H  0.52162339  0.82509292  0.78769911     0.10040
C785        C  0.51639648  0.99194910  0.76633897     0.01460
C786        C  0.50802344  0.68218794  0.81229184     0.07080
C787        C  0.50479255  0.64850601  0.79777256    -0.09070
C788        C  0.50532094  0.60266412  0.80314919     0.04580
C789        C  0.50833196  0.59075959  0.82289492    -0.07600
C790        C  0.51044866  0.62360878  0.83737910     0.07070
C791        C  0.51009232  0.66896996  0.83216763    -0.07020
H792        H  0.50238610  0.65785347  0.78247005     0.12660
H793        H  0.50867447  0.55560112  0.82704393     0.10190
H794        H  0.51047039  0.69386089  0.84371285     0.10040
C795        C  0.50366344  0.81025978  0.21491907     0.07080
C796        C  0.50797533  0.82890486  0.19611481    -0.09070
C797        C  0.51394001  0.87482300  0.19362691     0.04580
C798        C  0.51509866  0.90295195  0.20989185    -0.07600
C799        C  0.51014240  0.88568254  0.22878759     0.07070
C800        C  0.50498207  0.83888731  0.23147406    -0.07020
H801        H  0.50616881  0.80754766  0.18329101     0.12660
H802        H  0.51870445  0.93879906  0.20778422     0.10190
H803        H  0.50027664  0.82532702  0.24603177     0.10040
O804        O  0.55179717  0.54874250  0.89696048    -0.70480
O805        O  0.55279314  0.95996772  0.93738509    -0.70510
O806        O  0.55060557  0.95850088  0.89728540    -0.70560
O807        O  0.55380074  0.54837741  0.93715546    -0.70610
O808        O  0.97895388  0.55019638  0.93797766    -0.70540
O809        O  0.97571445  0.96026807  0.89813622    -0.70520
O810        O  0.97798282  0.96168286  0.93823927    -0.70500
O811        O  0.97702594  0.55063366  0.89781649    -0.70560
Ni812      Ni  0.55487789  0.00388759  0.91702213     1.25410
Ni813      Ni  0.97450302  0.00577535  0.91793219     1.25360
C814        C  0.51415330  0.56342384  0.89038456     0.91700
C815        C  0.51563670  0.94954535  0.94534432     0.91630
C816        C  0.51269301  0.94550570  0.89094063     0.91660
C817        C  0.51680940  0.56094117  0.94505973     0.91830
C818        C  0.51434760  0.68178723  0.22145300     0.07080
C819        C  0.51352324  0.66886995  0.20153544    -0.09070
C820        C  0.51327702  0.62357562  0.19624549     0.04580
C821        C  0.51416070  0.59050249  0.21069917    -0.07600
C822        C  0.51586784  0.60209056  0.23049474     0.07070
C823        C  0.51637163  0.64783958  0.23594997    -0.07020
H824        H  0.51408528  0.69390578  0.19003960     0.12660
H825        H  0.51395010  0.55540075  0.20649133     0.10190
H826        H  0.51786717  0.65693486  0.25129094     0.10040
O827        O  0.97588227  0.54912116  0.13629104    -0.70480
O828        O  0.97951310  0.95979342  0.09611825    -0.70510
O829        O  0.97919299  0.95869839  0.13620819    -0.70560
O830        O  0.97646422  0.54858955  0.09611384    -0.70610
O831        O  0.55203352  0.54947535  0.09622027    -0.70540
O832        O  0.55382835  0.95919772  0.13623133    -0.70520
O833        O  0.55402444  0.96051846  0.09612940    -0.70500
O834        O  0.55148681  0.54981491  0.13639776    -0.70560
Ni835      Ni  0.97528930  0.00397023  0.11633504     1.25410
Ni836      Ni  0.55577886  0.00461310  0.11640098     1.25360
C837        C  0.51375082  0.56360123  0.14323394     0.91700
C838        C  0.51685368  0.94895974  0.08853967     0.91630
C839        C  0.51663194  0.94513009  0.14293753     0.91660
C840        C  0.51450653  0.56103961  0.08855160     0.91830
C841        C  0.51922205  0.82169559  0.01686589     0.07080
C842        C  0.51865414  0.84465115  0.99918716    -0.09070
C843        C  0.51775206  0.89128834  0.99909973     0.04580
C844        C  0.51745380  0.91508867  0.01694626    -0.07600
C845        C  0.51803636  0.89107725  0.03474973     0.07070
C846        C  0.51890044  0.84444575  0.03458340    -0.07020
H847        H  0.51881034  0.82616411  0.98548974     0.12660
H848        H  0.51672244  0.95144349  0.01697925     0.10190
H849        H  0.51925424  0.82580296  0.04824985     0.10040
C850        C  0.51889202  0.68741060  0.01680099     0.07080
C851        C  0.51918811  0.66458986  0.99910883    -0.09070
C852        C  0.51805191  0.61800916  0.99897084     0.04580
C853        C  0.51663247  0.59409529  0.01678398    -0.07600
C854        C  0.51633615  0.61800646  0.03460478     0.07070
C855        C  0.51746512  0.66458615  0.03448376    -0.07020
H856        H  0.52017131  0.68315371  0.98543416     0.12660
H857        H  0.51572148  0.55777491  0.01677746     0.10190
H858        H  0.51719337  0.68314418  0.04816392     0.10040
C859        C  0.50446138  0.99240360  0.26699688     0.01460
C860        C  0.69315037  0.50040368  0.51600316     0.07080
C861        C  0.67044761  0.50080552  0.49825521    -0.09070
C862        C  0.62382760  0.50064978  0.49811176     0.04580
C863        C  0.59993899  0.50007580  0.51593207    -0.07600
C864        C  0.62379757  0.49965975  0.53373347     0.07070
C865        C  0.67025397  0.49983342  0.53364048    -0.07020
H866        H  0.68905064  0.50124863  0.48459501     0.12660
H867        H  0.56364791  0.49998368  0.51594478     0.10190
H868        H  0.68870668  0.49956061  0.54734546     0.10040
C869        C  0.51972797  0.77444057  0.01682819    -0.09320
C870        C  0.51963316  0.73463161  0.01680922    -0.10880
C871        C  0.51765389  0.91265597  0.05350542    -0.09320
C872        C  0.51736068  0.92691302  0.06998069    -0.10880
C873        C  0.51444686  0.58266684  0.06990147    -0.09320
C874        C  0.51502717  0.59647778  0.05335609    -0.10880
C875        C  0.51721233  0.56582250  0.24465321    -0.09320
C876        C  0.51814753  0.53212936  0.25463662    -0.10880
C877        C  0.51289288  0.61003506  0.17598734    -0.09320
C878        C  0.51305593  0.59230491  0.16010974    -0.10880
C879        C  0.51634152  0.92748270  0.96391726    -0.09320
C880        C  0.51697716  0.91308924  0.98037900    -0.10880
C881        C  0.51774647  0.58263332  0.96367789    -0.09320
C882        C  0.51802777  0.59649103  0.98021218    -0.10880
C883        C  0.49365793  0.76156376  0.21569453    -0.12480
C884        C  0.51552096  0.73062139  0.22673979    -0.27660
H885        H  0.97105797  0.75030865  0.20455665     0.16540
H886        H  0.53703557  0.74120732  0.23861914     0.17110
C887        C  0.50617704  0.95095692  0.25508765    -0.09320
C888        C  0.50799841  0.91805854  0.24462097    -0.10880
C889        C  0.51700580  0.91481399  0.15921816    -0.09320
C890        C  0.51632788  0.89408915  0.17435592    -0.10880
C891        C  0.51347367  0.59206713  0.87347680    -0.09320
C892        C  0.51236201  0.60982857  0.85760152    -0.10880
C893        C  0.50190660  0.53298121  0.77896851    -0.09320
C894        C  0.50301240  0.56659795  0.78896150    -0.10880
C895        C  0.52952367  0.76097960  0.81799167    -0.12480
C896        C  0.50692721  0.73115512  0.80710003    -0.27660
H897        H  0.55177930  0.74803133  0.82933104     0.16540
H898        H  0.98466029  0.74261980  0.79548113     0.17110
C899        C  0.51509177  0.91817246  0.78910545    -0.09320
C900        C  0.51614151  0.95083112  0.77848922    -0.10880
C901        C  0.51126048  0.89460687  0.85950915    -0.09320
C902        C  0.51154369  0.91526383  0.87466180    -0.10880
C903        C  0.74029094  0.50059360  0.51631886    -0.09320
C904        C  0.77998112  0.50072501  0.51714699    -0.10880
C905        C  0.55815365  0.99259655  0.75462335    -0.09320
C906        C  0.59124252  0.99412183  0.74429087    -0.10880
C907        C  0.61984359  0.49996222  0.67534199    -0.09320
C908        C  0.60198446  0.50054960  0.65948453    -0.10880
C909        C  0.91842550  0.50138911  0.55397942    -0.09320
C910        C  0.93390301  0.50152017  0.57024124    -0.10880
C911        C  0.58950133  0.49928300  0.56914343    -0.09320
C912        C  0.60246337  0.49927107  0.55248832    -0.10880
C913        C  0.77133354  0.47973723  0.71487069    -0.12480
C914        C  0.74016025  0.50028860  0.72623897    -0.27660
H915        H  0.76762219  0.02368634  0.73788813     0.16540
H916        H  0.75037224  0.52087483  0.73850236     0.17110
C917        C  0.97638649  0.99355870  0.75370188    -0.09320
C918        C  0.94304326  0.99543146  0.74355761    -0.10880
C919        C  0.90402706  0.50284413  0.67401239    -0.09320
C920        C  0.92481443  0.50330509  0.65892292    -0.10880
C921        C  0.93068007  0.50123239  0.46425017    -0.09320
C922        C  0.91773188  0.50132729  0.48090820    -0.10880
C923        C  0.60192382  0.50108533  0.47942744    -0.09320
C924        C  0.58650203  0.50138231  0.46315665    -0.10880
C925        C  0.57770533  0.99458900  0.28983075    -0.09320
C926        C  0.54437760  0.99303327  0.27973693    -0.10880
C927        C  0.61699892  0.50268248  0.35952311    -0.09320
C928        C  0.59605633  0.50324783  0.37457440    -0.10880
C929        C  0.77323431  0.97982964  0.31783610    -0.12480
C930        C  0.74189027  0.00172537  0.30708377    -0.27660
H931        H  0.76181916  0.95766436  0.32937786     0.16540
H932        H  0.76289915  0.45847415  0.33025598     0.17110
C933        C  0.92938001  0.99589067  0.28874961    -0.09320
C934        C  0.96262777  0.99436022  0.27850330    -0.10880
C935        C  0.91847019  0.50013314  0.37389933    -0.09320
C936        C  0.90069557  0.49992309  0.35803006    -0.10880
loop_ 
_geom_bond_atom_site_label_1 
_geom_bond_atom_site_label_2 
_geom_bond_distance 
_geom_bond_site_symmetry_2 
_ccdc_geom_bond_type 
C1            C6   1.416       .  A
C1          C236   1.415       .  A
C1          C227   1.501       .  S
C2            C3   1.393   1_565  A
C2          C235   1.404       .  A
C2            H7   1.085       .  S
C3            C4   1.392       .  A
C3          C234   1.435       .  S
C4          C239   1.397   1_545  A
C4            H8   1.086       .  S
C5            C6   1.414       .  A
C5          C238   1.397       .  A
C5          C231   1.451       .  S
C6            H9   1.084       .  S
C10          C15   1.419       .  A
C10         C245   1.405       .  A
C10         C228   1.489       .  S
C11          C12   1.399       .  A
C11         C244   1.415       .  A
C11          H16   1.084   1_565  S
C12         C247   1.395       .  A
C12         C225   1.442       .  S
C13          C14   1.397       .  A
C13         C246   1.392       .  A
C13          H17   1.086       .  S
C14          C15   1.419       .  A
C14         C223   1.450       .  S
C15          H18   1.083       .  S
O19          C29   1.279       .  A
O19        Ni495   1.913       .  S
O20          C30   1.278   1_545  A
O20         Ni27   1.907       .  S
O21          C31   1.280   1_545  A
O21         Ni27   1.919       .  S
O22          C32   1.279       .  A
O22        Ni495   1.912       .  S
O23         C266   1.278       .  A
O23        Ni496   1.908       .  S
O24         C265   1.279       .  A
O24         Ni28   1.913       .  S
O25         C264   1.279       .  A
O25         Ni28   1.912       .  S
O26         C263   1.280       .  A
O26        Ni496   1.919       .  S
Ni27        O487   1.913   1_455  S
Ni27        O490   1.912   1_455  S
Ni27       Ni262   2.396   1_545  S
Ni28        O491   1.907   1_455  S
Ni28        O494   1.919   1_455  S
Ni28       Ni261   2.396       .  S
C29         C233   1.429       .  S
C29         O260   1.279   1_545  A
C30         C222   1.425       .  S
C30         O259   1.278       .  A
C31         C226   1.437       .  S
C31         O258   1.280       .  A
C32         C219   1.428       .  S
C32         O257   1.279   1_545  A
C33          C34   1.415       .  A
C33         C272   1.415       .  A
C33         C211   1.501       .  S
C34          C35   1.400       .  A
C34          H39   1.083       .  S
C35          C36   1.396       .  A
C35         C217   1.444   1_565  S
C36         C271   1.397       .  A
C36          H40   1.085       .  S
C37          C38   1.419       .  A
C37         C270   1.397       .  A
C37         C216   1.451       .  S
C38         C267   1.419       .  A
C38          H41   1.083       .  S
O42          C52   1.279   1_545  A
O42         Ni50   1.915       .  S
O43          C53   1.278       .  A
O43        Ni518   1.908       .  S
O44          C54   1.280       .  A
O44        Ni518   1.921       .  S
O45          C55   1.279       .  A
O45         Ni50   1.912       .  S
O46         C289   1.278       .  A
O46         Ni51   1.908       .  S
O47         C288   1.279       .  A
O47        Ni519   1.914       .  S
O48         C287   1.279       .  A
O48        Ni519   1.911       .  S
O49         C286   1.280       .  A
O49         Ni51   1.919       .  S
Ni50        O511   1.909   1_455  S
Ni50        O512   1.920   1_455  S
Ni50       Ni285   2.396   1_545  S
Ni51        O515   1.914   1_455  S
Ni51        O516   1.912   1_455  S
Ni51       Ni284   2.396       .  S
C52         C206   1.430       .  S
C52         O283   1.279       .  A
C53         C208   1.426       .  S
C53         O282   1.278   1_545  A
C54         C218   1.438       .  S
C54         O281   1.280   1_545  A
C55         C209   1.429       .  S
C55         O280   1.279   1_545  A
C56          C57   1.420   1_545  A
C56          C61   1.405       .  A
C56         C212   1.490       .  S
C57          C58   1.420       .  A
C57         H296   1.083   1_565  S
C58          C59   1.397       .  A
C58         C438   1.452       .  S
C59          C60   1.392       .  A
C59          H63   1.086       .  S
C60          C61   1.393   1_565  A
C60         C205   1.435       .  S
C61          H64   1.085       .  S
H62         C291   1.083       .  S
C65          C66   1.389       .  A
C65          C70   1.385       .  A
C65         C202   1.408       .  S
C66          C67   1.392       .  A
C66          H71   1.086       .  S
C67          C68   1.411       .  A
C67         C220   1.434       .  S
C68          C69   1.410       .  A
C68          H72   1.084       .  S
C69          C70   1.388       .  A
C69         C207   1.431       .  S
C70          H73   1.086       .  S
C74          C75   1.406       .  A
C74          C79   1.420       .  A
C74         C193   1.491       .  S
C75          C76   1.393       .  A
C75          H80   1.085       .  S
C76          C77   1.393       .  A
C76         C199   1.437       .  S
C77          C78   1.398       .  A
C77          H81   1.086       .  S
C78          C79   1.420       .  A
C78         C197   1.452       .  S
C79          H82   1.083       .  S
C83         C198   1.482       .  S
C83         C203   1.480       .  S
C83         C425   1.479       .  S
C83         C683   1.480   1_455  S
C84          C85   1.416       .  A
C84          C89   1.415       .  A
C84         C194   1.502       .  S
C85          C86   1.414       .  A
C85          H90   1.083       .  S
C86          C87   1.397       .  A
C86         C192   1.450       .  S
C87          C88   1.395       .  A
C87          H91   1.086       .  S
C88          C89   1.399       .  A
C88         C190   1.443       .  S
C89          H92   1.083       .  S
C93          C94   1.405       .  A
C93          C98   1.419       .  A
C93         C181   1.488   1_455  S
C94          C95   1.393       .  A
C94          H99   1.085       .  S
C95          C96   1.392       .  A
C95         C188   1.436       .  S
C96          C97   1.398       .  A
C96         H100   1.086       .  S
C97          C98   1.419       .  A
C97         C186   1.450       .  S
C98         H101   1.083       .  S
O102        C112   1.280       .  A
O102       Ni344   1.919       .  S
O103        C113   1.279       .  A
O103       Ni110   1.911       .  S
O104        C114   1.279       .  A
O104       Ni110   1.916       .  S
O105        C115   1.279       .  A
O105       Ni344   1.911       .  S
O106        C583   1.278       .  A
O106       Ni345   1.910       .  S
O107        C582   1.279       .  A
O107       Ni111   1.915       .  S
O108        C581   1.279       .  A
O108       Ni111   1.911       .  S
O109        C580   1.280       .  A
O109       Ni345   1.919       .  S
Ni110       O336   1.919       .  S
Ni110       O339   1.910       .  S
Ni110      Ni579   2.396   1_455  S
Ni111       O340   1.909       .  S
Ni111       O343   1.918       .  S
Ni111      Ni578   2.396       .  S
C112        C189   1.437       .  S
C112        O577   1.280   1_455  A
C113        C177   1.428       .  S
C113        O576   1.279   1_455  A
C114        C200   1.431       .  S
C114        O575   1.279   1_455  A
C115        C179   1.428       .  S
C115        O574   1.278   1_455  A
C116        C117   1.415       .  A
C116        C121   1.414       .  A
C116        C182   1.499       .  S
C117        C118   1.399       .  A
C117        H122   1.084       .  S
C118        C119   1.394       .  A
C118        C175   1.442       .  S
C119        C120   1.396       .  A
C119        H123   1.086       .  S
C120        C121   1.413       .  A
C120        C173   1.448       .  S
C121        H124   1.084       .  S
O125        C603   1.280       .  A
O125       Ni367   1.918       .  S
O126        C604   1.279       .  A
O126       Ni133   1.911       .  S
O127        C605   1.279       .  A
O127       Ni133   1.915       .  S
O128        C606   1.279       .  A
O128       Ni367   1.910       .  S
O129        C138   1.279       .  A
O129       Ni368   1.909       .  S
O130        C137   1.279       .  A
O130       Ni134   1.914       .  S
O131        C136   1.279       .  A
O131       Ni134   1.911       .  S
O132        C135   1.280       .  A
O132       Ni368   1.919       .  S
Ni133       O359   1.918       .  S
Ni133       O362   1.910       .  S
Ni133      Ni602   2.396       .  S
Ni134       O363   1.909       .  S
Ni134       O366   1.918       .  S
Ni134      Ni601   2.396   1_455  S
C135        C176   1.436       .  S
C135        O593   1.280   1_455  A
C136        C170   1.428       .  S
C136        O594   1.279   1_455  A
C137        C187   1.430       .  S
C137        O595   1.279   1_455  A
C138        C171   1.427       .  S
C138        O596   1.278   1_455  A
C139        C140   1.388   1_554  A
C139        C144   1.387       .  A
C139        C167   1.409       .  S
C140        C141   1.390       .  A
C140        H145   1.086       .  S
C141        C142   1.410   1_556  A
C141        C178   1.434       .  S
C142        C143   1.410       .  A
C142        H146   1.084       .  S
C143        C144   1.390       .  A
C143        C169   1.434       .  S
C144        H147   1.086       .  S
C148        C149   1.387   1_554  A
C148        C153   1.387       .  A
C148        C168   1.409       .  S
C149        C150   1.390       .  A
C149        H154   1.086       .  S
C150        C151   1.411   1_556  A
C150        C180   1.433       .  S
C151        C152   1.411       .  A
C151        H155   1.084       .  S
C152        C153   1.390       .  A
C152        C172   1.433       .  S
C153        H156   1.086       .  S
C157        C185   1.480       .  S
C157        C224   1.479       .  S
C157        C408   1.478       .  S
C157        C700   1.479   1_455  S
C158        C159   1.385   1_545  A
C158        C163   1.389       .  A
C158        C201   1.408       .  S
C159        C160   1.388       .  A
C159        H164   1.086       .  S
C160        C161   1.409       .  A
C160        C221   1.431       .  S
C161        C162   1.410   1_565  A
C161        H165   1.084       .  S
C162        C163   1.392       .  A
C162        C210   1.434       .  S
C163        H166   1.086       .  S
C167        C168   1.187       .  T
C169        C170   1.203       .  T
C171        C172   1.203       .  T
C173        C174   1.212       .  T
C174        C391   1.476   1_545  S
C175        C176   1.207       .  T
C177        C178   1.203       .  T
C179        C180   1.203       .  T
C181        C182   1.348   1_655  D
C181        H651   1.087       .  S
C182        H184   1.086       .  S
H183        C649   1.087       .  S
C185        C186   1.214       .  T
C187        C188   1.203       .  T
C189        C190   1.207       .  T
C191        C317   1.478   1_545  S
C191        C192   1.214       .  T
C193        C194   1.350       .  D
C193        H195   1.087       .  S
C194        H664   1.086   1_455  S
H196        C662   1.086       .  S
C197        C198   1.215       .  T
C199        C200   1.204       .  T
C201        C202   1.187       .  T
C203        C204   1.214       .  T
C204        C292   1.451       .  S
C205        C206   1.203       .  T
C207        C208   1.202       .  T
C209        C210   1.203       .  T
C211        C212   1.349   1_565  D
C211        H447   1.086       .  S
C212        H214   1.087       .  S
H213        C445   1.087       .  S
C215        C551   1.480       .  S
C215        C216   1.215       .  T
C217        C218   1.208       .  T
C219        C220   1.203       .  T
C221        C222   1.201       .  T
C223        C224   1.214       .  T
C225        C226   1.207       .  T
C227        C228   1.350       .  D
C227        H229   1.086       .  S
C228        H464   1.087       .  S
H230        C462   1.086       .  S
C231        C232   1.214       .  T
C232        C625   1.479       .  S
C233        C234   1.202       .  T
C235        C240   1.419       .  A
C235        C461   1.488       .  S
C236        C237   1.399       .  A
C236        H241   1.083       .  S
C237        C238   1.395       .  A
C237        C468   1.442       .  S
C238        H242   1.085       .  S
C239        C240   1.419       .  A
C239        C465   1.450       .  S
C240        H243   1.083       .  S
C244        C249   1.414       .  A
C244        C462   1.499   1_565  S
C245        C246   1.393       .  A
C245        H250   1.085       .  S
C246        C459   1.435       .  S
C247        C248   1.396       .  A
C247        H251   1.085       .  S
C248        C249   1.413       .  A
C248        C457   1.448       .  S
C249        H252   1.084       .  S
O253        C263   1.280       .  A
O253       Ni729   1.920       .  S
O254        C264   1.279       .  A
O254       Ni261   1.912       .  S
O255        C265   1.279       .  A
O255       Ni261   1.914       .  S
O256        C266   1.278       .  A
O256       Ni729   1.908       .  S
O257       Ni730   1.911       .  S
O258       Ni262   1.919       .  S
O259       Ni262   1.908       .  S
O260       Ni730   1.914       .  S
Ni261       O721   1.919   1_455  S
Ni261       O724   1.908   1_455  S
Ni262       O725   1.911   1_455  S
Ni262       O728   1.914   1_455  S
C263        C467   1.437       .  S
C264        C456   1.428       .  S
C265        C460   1.429       .  S
C266        C453   1.425       .  S
C267        C268   1.405       .  A
C267        C445   1.490       .  S
C268        C269   1.393       .  A
C268        H273   1.085       .  S
C269        C270   1.392       .  A
C269        C451   1.435       .  S
C270        H274   1.086       .  S
C271        C272   1.414       .  A
C271        C450   1.450       .  S
C272        H275   1.083       .  S
O276        C286   1.280       .  A
O276       Ni284   1.920       .  S
O277        C287   1.279       .  A
O277       Ni752   1.912       .  S
O278        C288   1.279       .  A
O278       Ni752   1.913       .  S
O279        C289   1.278       .  A
O279       Ni284   1.908       .  S
O280       Ni285   1.912       .  S
O281       Ni753   1.919       .  S
O282       Ni753   1.909       .  S
O283       Ni285   1.913       .  S
Ni284       O745   1.912   1_455  S
Ni284       O746   1.914   1_455  S
Ni285       O749   1.920   1_455  S
Ni285       O750   1.908   1_455  S
C286        C440   1.437       .  S
C287        C442   1.429       .  S
C288        C452   1.430       .  S
C289        C443   1.425       .  S
C290        C291   1.416       .  A
C290        C295   1.415       .  A
C290        C446   1.502       .  S
C291        C292   1.415       .  A
C292        C293   1.397       .  A
C293        C294   1.395       .  A
C293        H297   1.085       .  S
C294        C295   1.399       .  A
C294        C439   1.443       .  S
C295        H298   1.083       .  S
C299        C300   1.385       .  A
C299        C304   1.389       .  A
C299        C436   1.408       .  S
C300        C301   1.387       .  A
C300        H305   1.086       .  S
C301        C302   1.410       .  A
C301        C454   1.431       .  S
C302        C303   1.411       .  A
C302        H306   1.084       .  S
C303        C304   1.392       .  A
C303        C441   1.435       .  S
C304        H307   1.086       .  S
C308        C309   1.406       .  A
C308        C313   1.418       .  A
C308        C427   1.490       .  S
C309        C310   1.394       .  A
C309        H314   1.085       .  S
C310        C311   1.393       .  A
C310        C433   1.438       .  S
C311        C312   1.398       .  A
C311        H315   1.086       .  S
C312        C313   1.419       .  A
C312        C431   1.451       .  S
C313        H316   1.083       .  S
C317        C432   1.481       .  S
C317        C437   1.482       .  S
C317        C917   1.479   1_455  S
C318        C319   1.416       .  A
C318        C323   1.414       .  A
C318        C428   1.502       .  S
C319        C320   1.415       .  A
C319        H324   1.083       .  S
C320        C321   1.397       .  A
C320        C426   1.451       .  S
C321        C322   1.395       .  A
C321        H325   1.086       .  S
C322        C323   1.398       .  A
C322        C424   1.442       .  S
C323        H326   1.083       .  S
C327        C328   1.405       .  A
C327        C332   1.418       .  A
C327        C415   1.488   1_455  S
C328        C329   1.394       .  A
C328        H333   1.085       .  S
C329        C330   1.393       .  A
C329        C422   1.437       .  S
C330        C331   1.398       .  A
C330        H334   1.086       .  S
C331        C332   1.418       .  A
C331        C420   1.450       .  S
C332        H335   1.083       .  S
O336        C346   1.280       .  A
O337        C347   1.279       .  A
O337       Ni344   1.912   1_565  S
O338        C348   1.280       .  A
O338       Ni344   1.916   1_565  S
O339        C349   1.279       .  A
O340        C817   1.278       .  A
O341        C816   1.279       .  A
O341       Ni345   1.916   1_565  S
O342        C815   1.279       .  A
O342       Ni345   1.911   1_565  S
O343        C814   1.280       .  A
Ni344      Ni813   2.395   1_455  S
Ni345      Ni812   2.395       .  S
C346        C423   1.436       .  S
C346        O811   1.280   1_455  A
C347        C411   1.429       .  S
C347        O810   1.279   1_455  A
C348        C434   1.433       .  S
C348        O809   1.279   1_455  A
C349        C413   1.427       .  S
C349        O808   1.278   1_455  A
C350        C351   1.414       .  A
C350        C355   1.415       .  A
C350        C416   1.500       .  S
C351        C352   1.399       .  A
C351        H356   1.083       .  S
C352        C353   1.395       .  A
C352        C409   1.442       .  S
C353        C354   1.396       .  A
C353        H357   1.086       .  S
C354        C355   1.414       .  A
C354        C407   1.449       .  S
C355        H358   1.084       .  S
O359        C837   1.280       .  A
O360        C838   1.279       .  A
O360       Ni367   1.911   1_565  S
O361        C839   1.279       .  A
O361       Ni367   1.916   1_565  S
O362        C840   1.278       .  A
O363        C372   1.278       .  A
O364        C371   1.279       .  A
O364       Ni368   1.916   1_565  S
O365        C370   1.279       .  A
O365       Ni368   1.911   1_565  S
O366        C369   1.280       .  A
Ni367      Ni836   2.396       .  S
Ni368      Ni835   2.396   1_455  S
C369        C410   1.436       .  S
C369        O827   1.280   1_455  A
C370        C404   1.428       .  S
C370        O828   1.279   1_455  A
C371        C421   1.432       .  S
C371        O829   1.279   1_455  A
C372        C405   1.427       .  S
C372        O830   1.278   1_455  A
C373        C374   1.388   1_554  A
C373        C378   1.387       .  A
C373        C401   1.409       .  S
C374        C375   1.390       .  A
C374        H379   1.086       .  S
C375        C376   1.411   1_556  A
C375        C412   1.434       .  S
C376        C377   1.411       .  A
C376        H380   1.084       .  S
C377        C378   1.390       .  A
C377        C403   1.434       .  S
C378        H381   1.086       .  S
C382        C383   1.387   1_554  A
C382        C387   1.387       .  A
C382        C402   1.408       .  S
C383        C384   1.390       .  A
C383        H388   1.086       .  S
C384        C385   1.410   1_556  A
C384        C414   1.433       .  S
C385        C386   1.410       .  A
C385        H389   1.084       .  S
C386        C387   1.390       .  A
C386        C406   1.432       .  S
C387        H390   1.086       .  S
C391        C419   1.479       .  S
C391        C458   1.476       .  S
C391        C934   1.480   1_455  S
C392        C393   1.389       .  A
C392        C397   1.385       .  A
C392        C435   1.408       .  S
C393        C394   1.392       .  A
C393        H398   1.086       .  S
C394        C395   1.410       .  A
C394        C455   1.434       .  S
C395        C396   1.409       .  A
C395        H399   1.084       .  S
C396        C397   1.387       .  A
C396        C444   1.430       .  S
C397        H400   1.086       .  S
C401        C402   1.187       .  T
C403        C404   1.203       .  T
C405        C406   1.202       .  T
C407        C408   1.213       .  T
C409        C410   1.207       .  T
C411        C412   1.203       .  T
C413        C414   1.202       .  T
C415        C416   1.349   1_655  D
C415        H885   1.087       .  S
C416        H418   1.086       .  S
H417        C883   1.087       .  S
C419        C420   1.214       .  T
C421        C422   1.204       .  T
C423        C424   1.207       .  T
C425        C426   1.214       .  T
C427        C428   1.350       .  D
C427        H429   1.087       .  S
C428        H898   1.086   1_455  S
H430        C896   1.086       .  S
C431        C432   1.215       .  T
C433        C434   1.205       .  T
C435        C436   1.187       .  T
C437        C438   1.215       .  T
C439        C440   1.207       .  T
C441        C442   1.203       .  T
C443        C444   1.201       .  T
C445        C446   1.350       .  D
C446        H448   1.086       .  S
C449        C785   1.478       .  S
C449        C450   1.214       .  T
C451        C452   1.203       .  T
C453        C454   1.201       .  T
C455        C456   1.203       .  T
C457        C458   1.213       .  T
C459        C460   1.203       .  T
C461        C462   1.348   1_565  D
C461        H463   1.087       .  S
C465        C466   1.214       .  T
C466        C859   1.480       .  S
C467        C468   1.207       .  T
C469        C704   1.414       .  A
C469        C474   1.416       .  A
C469        C695   1.501       .  S
C470        C703   1.404       .  A
C470        C471   1.393   1_565  A
C470        H475   1.085       .  S
C471        C472   1.392       .  A
C471        C702   1.435       .  S
C472        C707   1.397   1_545  A
C472        H476   1.086       .  S
C473        C706   1.397       .  A
C473        C474   1.414       .  A
C473        C699   1.451       .  S
C474        H477   1.083       .  S
C478        C713   1.405       .  A
C478        C483   1.419       .  A
C478        C696   1.489       .  S
C479        C712   1.415       .  A
C479        C480   1.400       .  A
C479        H484   1.084   1_565  S
C480        C715   1.395       .  A
C480        C693   1.443       .  S
C481        C714   1.392       .  A
C481        C482   1.397       .  A
C481        H485   1.086       .  S
C482        C483   1.419       .  A
C482        C691   1.450       .  S
C483        H486   1.083       .  S
O487        C497   1.279       .  A
O488        C498   1.278   1_545  A
O488       Ni495   1.908       .  S
O489        C499   1.280   1_545  A
O489       Ni495   1.920       .  S
O490        C500   1.279       .  A
O491        C734   1.278       .  A
O492        C733   1.279       .  A
O492       Ni496   1.913       .  S
O493        C732   1.279       .  A
O493       Ni496   1.911       .  S
O494        C731   1.280       .  A
Ni495      Ni730   2.396   1_545  S
Ni496      Ni729   2.396       .  S
C497        C701   1.429       .  S
C497        O728   1.279   1_545  A
C498        C690   1.425       .  S
C498        O727   1.278       .  A
C499        C694   1.437       .  S
C499        O726   1.280       .  A
C500        C687   1.428       .  S
C500        O725   1.279   1_545  A
C501        C502   1.415       .  A
C501        C740   1.415   1_545  A
C501        C679   1.501       .  S
C502        C503   1.400   1_545  A
C502        H507   1.084       .  S
C503        C504   1.396       .  A
C503        C685   1.444       .  S
C504        C739   1.397       .  A
C504        H508   1.085       .  S
C505        C738   1.397       .  A
C505        C506   1.420       .  A
C505        C684   1.451       .  S
C506        C735   1.419       .  A
C506        H509   1.083       .  S
O510        C520   1.279       .  A
O510       Ni518   1.914       .  S
O511        C521   1.278       .  A
O512        C522   1.280   1_545  A
O513        C523   1.279       .  A
O513       Ni518   1.913       .  S
O514        C757   1.278       .  A
O514       Ni519   1.908       .  S
O515        C756   1.279       .  A
O516        C755   1.279       .  A
O517        C754   1.280       .  A
O517       Ni519   1.919       .  S
Ni518      Ni753   2.396   1_545  S
Ni519      Ni752   2.396       .  S
C520        C674   1.430       .  S
C520        O751   1.279   1_545  A
C521        C676   1.426       .  S
C521        O750   1.278   1_545  A
C522        C686   1.438       .  S
C522        O749   1.280       .  A
C523        C677   1.429       .  S
C523        O748   1.279   1_545  A
C524        C525   1.419       .  A
C524        C529   1.405       .  A
C524        C680   1.489       .  S
C525        C526   1.420       .  A
C525        H764   1.083       .  S
C526        C527   1.397   1_565  A
C526        C906   1.452       .  S
C527        C528   1.392       .  A
C527        H531   1.086       .  S
C528        C529   1.393   1_545  A
C528        C673   1.436       .  S
C529        H532   1.085       .  S
H530        C759   1.083       .  S
C533        C534   1.389       .  A
C533        C538   1.385       .  A
C533        C670   1.408       .  S
C534        C535   1.392       .  A
C534        H539   1.086       .  S
C535        C536   1.411       .  A
C535        C688   1.434       .  S
C536        C537   1.410       .  A
C536        H540   1.084       .  S
C537        C538   1.388       .  A
C537        C675   1.431       .  S
C538        H541   1.086       .  S
C542        C543   1.406       .  A
C542        C547   1.419       .  A
C542        C661   1.491       .  S
C543        C544   1.393       .  A
C543        H548   1.085       .  S
C544        C545   1.393       .  A
C544        C667   1.437       .  S
C545        C546   1.398       .  A
C545        H549   1.086       .  S
C546        C547   1.420       .  A
C546        C665   1.452       .  S
C547        H550   1.083       .  S
C551        C893   1.479       .  S
C551        C666   1.481       .  S
C551        C671   1.480       .  S
C552        C553   1.416       .  A
C552        C557   1.415       .  A
C552        C662   1.502       .  S
C553        C554   1.415       .  A
C553        H558   1.083       .  S
C554        C555   1.397       .  A
C554        C660   1.451       .  S
C555        C556   1.395       .  A
C555        H559   1.085       .  S
C556        C557   1.399       .  A
C556        C658   1.443       .  S
C557        H560   1.083       .  S
C561        C562   1.405       .  A
C561        C566   1.419       .  A
C561        C649   1.489       .  S
C562        C563   1.393       .  A
C562        H567   1.085       .  S
C563        C564   1.392       .  A
C563        C656   1.436       .  S
C564        C565   1.398       .  A
C564        H568   1.086       .  S
C565        C566   1.419       .  A
C565        C654   1.450       .  S
C566        H569   1.083       .  S
O570        C580   1.280       .  A
O570       Ni812   1.919       .  S
O571        C581   1.279       .  A
O571       Ni578   1.911       .  S
O572        C582   1.279       .  A
O572       Ni578   1.916       .  S
O573        C583   1.279       .  A
O573       Ni812   1.911       .  S
O574       Ni813   1.909       .  S
O575       Ni579   1.914       .  S
O576       Ni579   1.911       .  S
O577       Ni813   1.919       .  S
Ni578       O804   1.919       .  S
Ni578       O807   1.910       .  S
Ni579       O808   1.908       .  S
Ni579       O811   1.918       .  S
C580        C657   1.437       .  S
C581        C645   1.428       .  S
C582        C668   1.432       .  S
C583        C647   1.428       .  S
C584        C585   1.414       .  A
C584        C589   1.415       .  A
C584        C650   1.500       .  S
C585        C586   1.398       .  A
C585        H590   1.084       .  S
C586        C587   1.394       .  A
C586        C643   1.441       .  S
C587        C588   1.396       .  A
C587        H591   1.086       .  S
C588        C589   1.414       .  A
C588        C641   1.448       .  S
C589        H592   1.084       .  S
O593       Ni835   1.919       .  S
O594       Ni601   1.911       .  S
O595       Ni601   1.915       .  S
O596       Ni835   1.910       .  S
O597        C606   1.279       .  A
O597       Ni836   1.910       .  S
O598        C605   1.279       .  A
O598       Ni602   1.915       .  S
O599        C604   1.279       .  A
O599       Ni602   1.911       .  S
O600        C603   1.280       .  A
O600       Ni836   1.919       .  S
Ni601       O827   1.919       .  S
Ni601       O830   1.909       .  S
Ni602       O831   1.909       .  S
Ni602       O834   1.918       .  S
C603        C644   1.436       .  S
C604        C638   1.428       .  S
C605        C655   1.431       .  S
C606        C639   1.428       .  S
C607        C608   1.388   1_554  A
C607        C612   1.387       .  A
C607        C635   1.409       .  S
C608        C609   1.390       .  A
C608        H613   1.086       .  S
C609        C610   1.410   1_556  A
C609        C646   1.434       .  S
C610        C611   1.410       .  A
C610        H614   1.084       .  S
C611        C612   1.390       .  A
C611        C637   1.433       .  S
C612        H615   1.086       .  S
C616        C617   1.387   1_554  A
C616        C621   1.387       .  A
C616        C636   1.409       .  S
C617        C618   1.390       .  A
C617        H622   1.086       .  S
C618        C619   1.411   1_556  A
C618        C648   1.434       .  S
C619        C620   1.411       .  A
C619        H623   1.084       .  S
C620        C621   1.390       .  A
C620        C640   1.434       .  S
C621        H624   1.086       .  S
C625        C876   1.478       .  S
C625        C653   1.480       .  S
C625        C692   1.479       .  S
C626        C627   1.385   1_545  A
C626        C631   1.389       .  A
C626        C669   1.408       .  S
C627        C628   1.388       .  A
C627        H632   1.086       .  S
C628        C629   1.410       .  A
C628        C689   1.431       .  S
C629        C630   1.411       .  A
C629        H633   1.084       .  S
C630        C631   1.392   1_565  A
C630        C678   1.435   1_565  S
C631        H634   1.086       .  S
C635        C636   1.187       .  T
C637        C638   1.203       .  T
C639        C640   1.203       .  T
C641        C642   1.212       .  T
C642        C859   1.476   1_545  S
C643        C644   1.206       .  T
C645        C646   1.203       .  T
C647        C648   1.203       .  T
C649        C650   1.349       .  D
C650        H652   1.086       .  S
C653        C654   1.214       .  T
C655        C656   1.204       .  T
C657        C658   1.207       .  T
C659        C785   1.479   1_545  S
C659        C660   1.214       .  T
C661        C662   1.350       .  D
C661        H663   1.087       .  S
C665        C666   1.215       .  T
C667        C668   1.204       .  T
C669        C670   1.187       .  T
C671        C672   1.214       .  T
C672        C760   1.451       .  S
C673        C674   1.203       .  T
C675        C676   1.202       .  T
C677        C678   1.203       .  T
C679        C680   1.349   1_545  D
C679        H915   1.086       .  S
C680        H682   1.087       .  S
H681        C913   1.087       .  S
C683        C684   1.215       .  T
C685        C686   1.208       .  T
C687        C688   1.203       .  T
C689        C690   1.201       .  T
C691        C692   1.214       .  T
C693        C694   1.207       .  T
C695        C696   1.350       .  D
C695        H697   1.086       .  S
C696        H932   1.087       .  S
H698        C930   1.086       .  S
C699        C700   1.214       .  T
C701        C702   1.202       .  T
C703        C708   1.419       .  A
C703        C929   1.488       .  S
C704        C705   1.399       .  A
C704        H709   1.083       .  S
C705        C706   1.395       .  A
C705        C936   1.442       .  S
C706        H710   1.085       .  S
C707        C708   1.419       .  A
C707        C933   1.450       .  S
C708        H711   1.083       .  S
C712        C717   1.414       .  A
C712        C930   1.499   1_565  S
C713        C714   1.393       .  A
C713        H718   1.085       .  S
C714        C927   1.435       .  S
C715        C716   1.396       .  A
C715        H719   1.085       .  S
C716        C717   1.413       .  A
C716        C925   1.449       .  S
C717        H720   1.084       .  S
O721        C731   1.280       .  A
O722        C732   1.279       .  A
O722       Ni729   1.912       .  S
O723        C733   1.279       .  A
O723       Ni729   1.914       .  S
O724        C734   1.278       .  A
O726       Ni730   1.919       .  S
O727       Ni730   1.908       .  S
C731        C935   1.437       .  S
C732        C924   1.428       .  S
C733        C928   1.429       .  S
C734        C921   1.425       .  S
C735        C736   1.405       .  A
C735        C913   1.490       .  S
C736        C737   1.393       .  A
C736        H741   1.085       .  S
C737        C738   1.392       .  A
C737        C919   1.435       .  S
C738        H742   1.086       .  S
C739        C740   1.414       .  A
C739        C918   1.450       .  S
C740        H743   1.083       .  S
O744        C754   1.280       .  A
O744       Ni752   1.920       .  S
O745        C755   1.279       .  A
O746        C756   1.279       .  A
O747        C757   1.278       .  A
O747       Ni752   1.907       .  S
O748       Ni753   1.911       .  S
O751       Ni753   1.914       .  S
C754        C908   1.437       .  S
C755        C910   1.429       .  S
C756        C920   1.429       .  S
C757        C911   1.425       .  S
C758        C759   1.416       .  A
C758        C763   1.415       .  A
C758        C914   1.502       .  S
C759        C760   1.415       .  A
C760        C761   1.397       .  A
C761        C762   1.395       .  A
C761        H765   1.085       .  S
C762        C763   1.399       .  A
C762        C907   1.443       .  S
C763        H766   1.083       .  S
C767        C768   1.385       .  A
C767        C772   1.389       .  A
C767        C904   1.408       .  S
C768        C769   1.387       .  A
C768        H773   1.086       .  S
C769        C770   1.409       .  A
C769        C922   1.430       .  S
C770        C771   1.410       .  A
C770        H774   1.084       .  S
C771        C772   1.392       .  A
C771        C909   1.434       .  S
C772        H775   1.086       .  S
C776        C777   1.406       .  A
C776        C781   1.418       .  A
C776        C895   1.489       .  S
C777        C778   1.394       .  A
C777        H782   1.085       .  S
C778        C779   1.393       .  A
C778        C901   1.438       .  S
C779        C780   1.398       .  A
C779        H783   1.086       .  S
C780        C781   1.419       .  A
C780        C899   1.451       .  S
C781        H784   1.083       .  S
C785        C900   1.480       .  S
C785        C905   1.481       .  S
C786        C787   1.416       .  A
C786        C791   1.414       .  A
C786        C896   1.502       .  S
C787        C788   1.415       .  A
C787        H792   1.083       .  S
C788        C789   1.397       .  A
C788        C894   1.450       .  S
C789        C790   1.395       .  A
C789        H793   1.086       .  S
C790        C791   1.398       .  A
C790        C892   1.441       .  S
C791        H794   1.083       .  S
C795        C796   1.406       .  A
C795        C800   1.418       .  A
C795        C883   1.489       .  S
C796        C797   1.394       .  A
C796        H801   1.085       .  S
C797        C798   1.393       .  A
C797        C890   1.438       .  S
C798        C799   1.398       .  A
C798        H802   1.086       .  S
C799        C800   1.418       .  A
C799        C888   1.450       .  S
C800        H803   1.083       .  S
O804        C814   1.280       .  A
O805        C815   1.279       .  A
O805       Ni812   1.911   1_565  S
O806        C816   1.280       .  A
O806       Ni812   1.916   1_565  S
O807        C817   1.279       .  A
O809       Ni813   1.916   1_565  S
O810       Ni813   1.912   1_565  S
C814        C891   1.436       .  S
C815        C879   1.428       .  S
C816        C902   1.433       .  S
C817        C881   1.427       .  S
C818        C819   1.414       .  A
C818        C823   1.416       .  A
C818        C884   1.501       .  S
C819        C820   1.398       .  A
C819        H824   1.083       .  S
C820        C821   1.395       .  A
C820        C877   1.441       .  S
C821        C822   1.397       .  A
C821        H825   1.086       .  S
C822        C823   1.414       .  A
C822        C875   1.450       .  S
C823        H826   1.083       .  S
O828       Ni835   1.911   1_565  S
O829       Ni835   1.916   1_565  S
O831        C840   1.278       .  A
O832        C839   1.279       .  A
O832       Ni836   1.916   1_565  S
O833        C838   1.279       .  A
O833       Ni836   1.911   1_565  S
O834        C837   1.280       .  A
C837        C878   1.436       .  S
C838        C872   1.428       .  S
C839        C889   1.432       .  S
C840        C873   1.427       .  S
C841        C842   1.387   1_554  A
C841        C846   1.387       .  A
C841        C869   1.409       .  S
C842        C843   1.390       .  A
C842        H847   1.086       .  S
C843        C844   1.411   1_556  A
C843        C880   1.434       .  S
C844        C845   1.411       .  A
C844        H848   1.084       .  S
C845        C846   1.390       .  A
C845        C871   1.434       .  S
C846        H849   1.086       .  S
C850        C851   1.387   1_554  A
C850        C855   1.387       .  A
C850        C870   1.408       .  S
C851        C852   1.390       .  A
C851        H856   1.086       .  S
C852        C853   1.411   1_556  A
C852        C882   1.433       .  S
C853        C854   1.411       .  A
C853        H857   1.084       .  S
C854        C855   1.390       .  A
C854        C874   1.433       .  S
C855        H858   1.086       .  S
C859        C887   1.480       .  S
C859        C926   1.477       .  S
C860        C861   1.389       .  A
C860        C865   1.385       .  A
C860        C903   1.408       .  S
C861        C862   1.392       .  A
C861        H866   1.086       .  S
C862        C863   1.410       .  A
C862        C923   1.434       .  S
C863        C864   1.409       .  A
C863        H867   1.084       .  S
C864        C865   1.387       .  A
C864        C912   1.430       .  S
C865        H868   1.086       .  S
C869        C870   1.187       .  T
C871        C872   1.203       .  T
C873        C874   1.203       .  T
C875        C876   1.214       .  T
C877        C878   1.206       .  T
C879        C880   1.203       .  T
C881        C882   1.203       .  T
C883        C884   1.350       .  D
C884        H886   1.086       .  S
C887        C888   1.214       .  T
C889        C890   1.204       .  T
C891        C892   1.206       .  T
C893        C894   1.214       .  T
C895        C896   1.350       .  D
C895        H897   1.087       .  S
C899        C900   1.215       .  T
C901        C902   1.205       .  T
C903        C904   1.187       .  T
C905        C906   1.215       .  T
C907        C908   1.207       .  T
C909        C910   1.203       .  T
C911        C912   1.201       .  T
C913        C914   1.350       .  D
C914        H916   1.086       .  S
C917        C918   1.214       .  T
C919        C920   1.203       .  T
C921        C922   1.201       .  T
C923        C924   1.203       .  T
C925        C926   1.213       .  T
C927        C928   1.203       .  T
C929        C930   1.348   1_565  D
C929        H931   1.087       .  S
C933        C934   1.214       .  T
C935        C936   1.207       .  T
