geometry optimzed in LAMMPS
_audit_creation_date              2020-11-30 
_audit_creation_method            'lammps2cif' 
_symmetry_space_group_name_H-M    'P1' 
_symmetry_Int_Tables_number       1 
_symmetry_cell_setting            triclinic 
loop_ 
_symmetry_equiv_pos_as_xyz 
  x,y,z 
_cell_length_a                    31.310561990134666 
_cell_length_b                    31.251485733339297 
_cell_length_c                    31.414117366199534 
_cell_angle_alpha                 89.72579375039047 
_cell_angle_beta                  89.55212731089549 
_cell_angle_gamma                 90.42085431404708 
loop_ 
_atom_site_label 
_atom_site_type_symbol 
_atom_site_fract_x 
_atom_site_fract_y 
_atom_site_fract_z 
_atom_site_charge 
Fe1        Fe  0.31268419  0.77873835  0.49751528     1.65780
Fe2        Fe  0.23160783  0.70616795  0.50000301     1.73250
Fe3        Fe  0.21394498  0.80930939  0.49577610     1.54410
O4          O  0.25781933  0.85437783  0.51051506    -0.81290
O5          O  0.19327460  0.72077760  0.44745878    -0.79590
O6          O  0.30094040  0.82144102  0.55036624    -0.83790
O7          O  0.29961397  0.82565377  0.44741564    -0.78650
O8          O  0.20320231  0.79583933  0.55692041    -0.80420
O9          O  0.27550789  0.68279471  0.45560412    -0.83170
C10         C  0.26581494  0.83260517  0.42460247     0.97600
C11         C  0.27383695  0.85126040  0.54641396     1.05040
O12         O  0.25386462  0.76318221  0.49735725    -1.12150
O13         O  0.27090059  0.68912042  0.55072331    -0.74580
O14         O  0.32765065  0.73292219  0.54488554    -0.78070
O15         O  0.22972138  0.81706675  0.43443972    -0.78760
C16         C  0.30770452  0.70171000  0.56311301     0.96500
O17         O  0.32535705  0.73434518  0.44859763    -0.76720
O18         O  0.18593324  0.72740174  0.54533448    -0.81910
C19         C  0.16636861  0.75093702  0.44760620     0.99120
C20         C  0.18228954  0.76248126  0.56645448     1.05040
O21         O  0.16282060  0.77266891  0.48051372    -0.77550
C22         C  0.30862164  0.69847626  0.43719024     1.03340
Fe23       Fe  0.66573810  0.26011484  0.50137476     1.65780
Fe24       Fe  0.73800237  0.34208075  0.49980021     1.73250
Fe25       Fe  0.76813394  0.24346868  0.49617735     1.54410
O26         O  0.73171755  0.19241189  0.51442907    -0.81290
O27         O  0.77800210  0.33311222  0.44478732    -0.79590
O28         O  0.68300346  0.22017483  0.55391726    -0.83790
O29         O  0.68464296  0.21328018  0.45455697    -0.78650
O30         O  0.78134766  0.25558911  0.55619438    -0.80420
O31         O  0.69005990  0.35713726  0.45530739    -0.83170
C32         C  0.71904181  0.21116357  0.43154728     0.97600
C33         C  0.71301338  0.19321739  0.54965342     1.05040
O34         O  0.72259735  0.28320364  0.50059219    -1.12150
O35         O  0.69712834  0.35474680  0.55137294    -0.74580
O36         O  0.64515453  0.30522075  0.54709280    -0.78070
O37         O  0.74871283  0.23784290  0.43619088    -0.78760
C38         C  0.66177026  0.33843792  0.56457575     0.96500
O39         O  0.64681334  0.29980385  0.45064768    -0.76720
O40         O  0.78684951  0.32702329  0.54640198    -0.81910
C41         C  0.80947482  0.30786895  0.44605962     0.99120
C42         C  0.79568107  0.29185554  0.56672361     1.05040
O43         O  0.81404638  0.28643348  0.47915045    -0.77550
C44         C  0.65911772  0.33683384  0.43759175     1.03340
Fe45       Fe  0.74139207  0.70297642  0.50240076     1.65780
Fe46       Fe  0.65914987  0.77402567  0.50026662     1.73250
Fe47       Fe  0.76024215  0.80649170  0.49434274     1.54420
O48         O  0.80909239  0.77556717  0.52278934    -0.81290
O49         O  0.66558301  0.81067689  0.44398166    -0.79590
O50         O  0.77932523  0.72083694  0.55539615    -0.83790
O51         O  0.79255422  0.71823668  0.45901712    -0.78650
O52         O  0.74040479  0.82346338  0.55177244    -0.80420
O53         O  0.64358395  0.72393539  0.45986026    -0.83170
C54         C  0.80138936  0.75088050  0.43532666     0.97600
C55         C  0.80605905  0.75188414  0.55495006     1.05040
O56         O  0.71945371  0.76026173  0.49831772    -1.12150
O57         O  0.64848675  0.73586620  0.55443733    -0.74580
O58         O  0.69473239  0.68234324  0.54692602    -0.78070
O59         O  0.78053685  0.78539199  0.43729090    -0.78760
C60         C  0.66323715  0.69967468  0.56625292     0.96500
O61         O  0.70234700  0.68420246  0.45069354    -0.76720
O62         O  0.67022750  0.82680209  0.54185124    -0.81910
C63         C  0.69242273  0.84078841  0.43833988     0.99120
C64         C  0.70422961  0.83670235  0.56223516     1.05040
O65         O  0.71988922  0.84884594  0.46614971    -0.77550
C66         C  0.66416994  0.69488657  0.44022559     1.03340
Fe67       Fe  0.47914503  0.33447481  0.24433651     1.65780
Fe68       Fe  0.48115947  0.25901716  0.32305951     1.73250
Fe69       Fe  0.47360119  0.23329337  0.22378363     1.54410
O70         O  0.41264573  0.25248298  0.22147441    -0.81290
O71         O  0.52793576  0.21011401  0.30324116    -0.79590
O72         O  0.43015019  0.31693333  0.19796195    -0.83790
O73         O  0.53052239  0.31880221  0.20256991    -0.78650
O74         O  0.45926398  0.18574082  0.26561332    -0.80420
O75         O  0.53260107  0.29915485  0.33554694    -0.83170
C76         C  0.52513285  0.29043950  0.17419531     0.97600
C77         C  0.40698208  0.28237395  0.19532298     1.05040
O78         O  0.47919665  0.27692938  0.26512652    -1.12150
O79         O  0.43600266  0.30693007  0.34165807    -0.74580
O80         O  0.42978223  0.35168138  0.28588992    -0.78070
O81         O  0.48990385  0.27139714  0.17340985    -0.78760
C82         C  0.41763444  0.33860241  0.32271876     0.96500
O83         O  0.52664005  0.35346445  0.28915146    -0.76720
O84         O  0.42674490  0.21894984  0.31581812    -0.81910
C85         C  0.54631275  0.20271264  0.26650077     0.99120
C86         C  0.42777544  0.18830130  0.28979164     1.05040
O87         O  0.53466924  0.22069400  0.23256902    -0.77550
C88         C  0.54502285  0.33536660  0.32105820     1.03340
Fe89       Fe  0.65693061  0.51965210  0.25022004     1.65780
Fe90       Fe  0.73340299  0.51657073  0.32624544     1.73250
Fe91       Fe  0.75772817  0.52327016  0.22619464     1.54410
O92         O  0.71966062  0.50441979  0.17737278    -0.81290
O93         O  0.76896076  0.57320152  0.31704119    -0.79590
O94         O  0.66948074  0.46857709  0.20933369    -0.83790
O95         O  0.67312004  0.56584356  0.20197340    -0.78650
O96         O  0.77043353  0.46279383  0.23869325    -0.80420
O97         O  0.68521473  0.55756886  0.34742692    -0.83170
C98         C  0.70762210  0.58814821  0.19708971     0.97600
C99         C  0.69727995  0.47124738  0.17976958     1.05040
O100        O  0.71476671  0.51876115  0.26871203    -1.12150
O101        O  0.69557665  0.46283838  0.33757193    -0.74580
O102        O  0.63849656  0.47355479  0.29610010    -0.78070
O103        O  0.73867402  0.58266873  0.22089714    -0.78760
C104        C  0.65816129  0.45246704  0.32499679     0.96500
O105        O  0.64370296  0.56967495  0.29090262    -0.76720
O106        O  0.78489768  0.47512053  0.30679662    -0.81910
C107        C  0.79798270  0.57555491  0.28897515     0.99120
C108        C  0.79243797  0.45579187  0.27117674     1.05040
O109        O  0.80467666  0.54392311  0.26562948    -0.77550
C110        C  0.65653804  0.57906285  0.32818790     1.03340
Fe111      Fe  0.48734246  0.69960967  0.24845571     1.65780
Fe112      Fe  0.48175713  0.77125081  0.32957290     1.73250
Fe113      Fe  0.48013423  0.80273104  0.23019986     1.54410
O114        O  0.54180550  0.79109044  0.21706403    -0.81290
O115        O  0.43177221  0.81595089  0.31657176    -0.79590
O116        O  0.53237665  0.72261351  0.20036074    -0.83790
O117        O  0.43443700  0.70988862  0.20882779    -0.78650
O118        O  0.49578124  0.84872654  0.27310327    -0.80420
O119        O  0.43415371  0.72733250  0.34113432    -0.83170
C120        C  0.43388730  0.73924693  0.18085913     0.97600
C121        C  0.55096495  0.75937164  0.19401732     1.05040
O122        O  0.48299791  0.75654968  0.27033565    -1.12150
O123        O  0.52924623  0.72724248  0.34596217    -0.74580
O124        O  0.53851496  0.68562666  0.28882494    -0.78070
O125        O  0.46368693  0.76610288  0.17958145    -0.78760
C126        C  0.54914536  0.69765433  0.32626224     0.96500
O127        O  0.44206245  0.67514572  0.29320172    -0.76720
O128        O  0.53217926  0.81489907  0.32033834    -0.81910
C129        C  0.40817774  0.82239410  0.28357909     0.99120
C130        C  0.52942574  0.84539203  0.29398194     1.05040
O131        O  0.41848118  0.80969852  0.24669000    -0.77550
C132        C  0.42280718  0.69161515  0.32535367     1.03340
Fe133      Fe  0.22346173  0.51823331  0.32550881     1.65780
Fe134      Fe  0.29742182  0.51889677  0.24551458     1.73250
Fe135      Fe  0.19547425  0.52306349  0.22651887     1.54420
O136        O  0.14872114  0.50689374  0.26858377    -0.81290
O137        O  0.28446123  0.57270998  0.20620348    -0.79590
O138        O  0.18050226  0.46579951  0.31209065    -0.83790
O139        O  0.17731919  0.56826998  0.31280477    -0.78650
O140        O  0.20734381  0.46187489  0.21354155    -0.80420
O141        O  0.31874439  0.56346303  0.29121651    -0.83170
C142        C  0.17285284  0.59272362  0.27966106     0.97600
C143        C  0.15074991  0.47074208  0.28519210     1.05040
O144        O  0.24034260  0.51968000  0.26701443    -1.12150
O145        O  0.31428049  0.46714039  0.28457064    -0.74580
O146        O  0.26905635  0.47100849  0.34005486    -0.78070
O147        O  0.19075957  0.58442074  0.24463080    -0.78760
C148        C  0.30089384  0.45370691  0.32084559     0.96500
O149        O  0.26675825  0.56751986  0.34061843    -0.76720
O150        O  0.27641509  0.47338856  0.19867871    -0.81910
C151        C  0.25528019  0.57159470  0.17836646     0.99120
C152        C  0.24065056  0.45325207  0.19237050     1.05040
O153        O  0.23283137  0.53882775  0.17604495    -0.77550
C154        C  0.30241521  0.58050357  0.32467750     1.03340
Fe155      Fe  0.29694347  0.51887834  0.75035451     1.65780
Fe156      Fe  0.22446840  0.52080610  0.67034743     1.73250
Fe157      Fe  0.19454769  0.52180894  0.76976692     1.54420
O158        O  0.22941803  0.50047867  0.82014816    -0.81290
O159        O  0.18688568  0.57664697  0.68069222    -0.79590
O160        O  0.28034016  0.46573130  0.78880869    -0.83790
O161        O  0.27934925  0.56353569  0.79847427    -0.78650
O162        O  0.18131016  0.46210123  0.75424267    -0.80420
O163        O  0.27340996  0.56458865  0.65414933    -0.83170
C164        C  0.24552011  0.58634473  0.80313442     0.97600
C165        C  0.25075883  0.46695425  0.81673502     1.05040
O166        O  0.23995318  0.51981801  0.72903392    -1.12150
O167        O  0.26381027  0.46815728  0.65784601    -0.74580
O168        O  0.31698390  0.47430489  0.70486849    -0.78070
O169        O  0.21340139  0.58146852  0.77996632    -0.78760
C170        C  0.29935851  0.45555119  0.67335150     0.96500
O171        O  0.31522183  0.57050754  0.71145904    -0.76720
O172        O  0.17345968  0.47524780  0.68447405    -0.81910
C173        C  0.15632005  0.57603359  0.70734591     0.99120
C174        C  0.16519320  0.45340914  0.71877665     1.05040
O175        O  0.15001085  0.54240546  0.72808894    -0.77550
C176        C  0.30374001  0.58298324  0.67441787     1.03340
Fe177      Fe  0.48445178  0.77250759  0.68277065     1.65780
Fe178      Fe  0.48242935  0.69274375  0.75697716     1.73250
Fe179      Fe  0.47914551  0.79224193  0.78410677     1.54410
O180        O  0.49825102  0.84375276  0.74773150    -0.81290
O181        O  0.42631389  0.70324216  0.79566267    -0.79590
O182        O  0.53588395  0.81353359  0.69818301    -0.83790
O183        O  0.43783991  0.81956183  0.70023783    -0.78650
O184        O  0.53910211  0.78040234  0.79714045    -0.80420
O185        O  0.43831174  0.67576042  0.70937720    -0.83170
C186        C  0.41468092  0.82237500  0.73431528     0.97600
C187        C  0.53230225  0.84223365  0.72654632     1.05040
O188        O  0.48381587  0.75126468  0.73986921    -1.12150
O189        O  0.53468575  0.67902944  0.71683774    -0.74580
O190        O  0.53061974  0.72724849  0.66384827    -0.78070
O191        O  0.41909551  0.79661232  0.76450488    -0.78760
C192        C  0.54821188  0.69463483  0.68131603     0.96500
O193        O  0.43430232  0.73222564  0.66533588    -0.76720
O194        O  0.52876775  0.70940321  0.80586942    -0.81910
C195        C  0.42773116  0.72968248  0.82607769     0.99120
C196        C  0.54922677  0.74496228  0.81324547     1.05040
O197        O  0.46177747  0.74988914  0.83033700    -0.77550
C198        C  0.42103013  0.69556452  0.67810493     1.03340
Fe199      Fe  0.65072089  0.51667307  0.75579130     1.65780
Fe200      Fe  0.73581847  0.51340781  0.68799371     1.73250
Fe201      Fe  0.74847455  0.51942789  0.79154255     1.54410
O202        O  0.70562840  0.54716034  0.83155014    -0.81290
O203        O  0.77217413  0.45967390  0.70749102    -0.79590
O204        O  0.65879321  0.57469888  0.78937246    -0.83790
O205        O  0.65943089  0.47491105  0.81071243    -0.78650
O206        O  0.76444831  0.57668459  0.76981100    -0.80420
O207        O  0.68928831  0.47001573  0.66589859    -0.83170
C208        C  0.69229167  0.45319347  0.82270887     0.97600
C209        C  0.68504586  0.57919369  0.81946738     1.05040
O210        O  0.71086410  0.51556758  0.74399001    -1.12150
O211        O  0.69947663  0.56697248  0.66808407    -0.74580
O212        O  0.63821044  0.55755139  0.70430400    -0.78070
O213        O  0.72912077  0.46091662  0.80850455    -0.78760
C214        C  0.66106985  0.57826853  0.67712061     0.96500
O215        O  0.64078521  0.46218711  0.71828452    -0.76720
O216        O  0.78608423  0.55568804  0.70610126    -0.81910
C217        C  0.79782929  0.46088979  0.73895957     0.99120
C218        C  0.79068973  0.57865754  0.73956613     1.05040
O219        O  0.79970700  0.49369842  0.76148330    -0.77550
C220        C  0.65689068  0.45077581  0.68243605     1.03340
Fe221      Fe  0.47713807  0.26240919  0.67942663     1.65780
Fe222      Fe  0.47889276  0.34245920  0.75248868     1.73250
Fe223      Fe  0.48377195  0.24239154  0.78130049     1.54420
O224        O  0.46163134  0.19269920  0.74608967    -0.81290
O225        O  0.53546890  0.33368451  0.78760909    -0.79590
O226        O  0.42458273  0.22239827  0.69576309    -0.83790
O227        O  0.52220498  0.21323185  0.69473035    -0.78650
O228        O  0.42486277  0.25569175  0.79929728    -0.80420
O229        O  0.52081999  0.35951488  0.70298725    -0.83170
C230        C  0.54580416  0.20912035  0.72790573     0.97600
C231        C  0.42825858  0.19370946  0.72436936     1.05040
O232        O  0.47835882  0.28347720  0.73669974    -1.12150
O233        O  0.42565579  0.35507265  0.71538544    -0.74580
O234        O  0.43244359  0.30909879  0.66124045    -0.78070
O235        O  0.54231797  0.23398805  0.75887361    -0.78760
C236        C  0.41371757  0.34061404  0.67941210     0.96500
O237        O  0.52883925  0.30169095  0.66185346    -0.76720
O238        O  0.43539532  0.32694000  0.80401372    -0.81910
C239        C  0.53797927  0.30679902  0.81760681     0.99120
C240        C  0.41484332  0.29202110  0.81343246     1.05040
O241        O  0.50639335  0.28342568  0.82575815    -0.77550
C242        C  0.54055771  0.33904340  0.67371668     1.03340
Fe243      Fe  0.30748839  0.26466717  0.49850860     1.65780
Fe244      Fe  0.22594870  0.33582058  0.50049918     1.73250
Fe245      Fe  0.20833735  0.23307440  0.49480696     1.54420
O246        O  0.25070643  0.19089488  0.47061870    -0.81290
O247        O  0.18696212  0.31871606  0.55339491    -0.79590
O248        O  0.29891247  0.23148371  0.44099501    -0.83790
O249        O  0.29401749  0.20989088  0.53784004    -0.78650
O250        O  0.19880485  0.25560612  0.43686517    -0.80420
O251        O  0.27246307  0.35557644  0.54414815    -0.83170
C252        C  0.25992365  0.19709768  0.55758908     0.97600
C253        C  0.27252253  0.20082417  0.43861400     1.05040
O254        O  0.24817026  0.27895177  0.49967377    -1.12150
O255        O  0.26495376  0.35329396  0.44844090    -0.74580
O256        O  0.32465729  0.31604934  0.45957544    -0.78070
O257        O  0.22410918  0.21476006  0.55295346    -0.78760
C258        C  0.30343928  0.34348018  0.43848091     0.96500
O259        O  0.31752852  0.30070176  0.55296209    -0.76720
O260        O  0.17638157  0.31908377  0.45694709    -0.81910
C261        C  0.15943026  0.28848959  0.55154344     0.99120
C262        C  0.17279101  0.28546443  0.43378179     1.05040
O263        O  0.15752162  0.26650556  0.51836048    -0.77550
C264        C  0.30301417  0.33724429  0.56392167     1.03340
C265        C  0.37611930  0.36090859  0.65797759     0.03520
C266        C  0.35830284  0.34183782  0.62160540    -0.12630
C267        C  0.32220479  0.35919684  0.60152506     0.01020
C268        C  0.30388456  0.39674547  0.61828080    -0.11160
C269        C  0.32076049  0.41683129  0.65468318     0.03510
C270        C  0.35699234  0.39845808  0.67421212    -0.10580
H271        H  0.37231735  0.31290762  0.60914033     0.09100
H272        H  0.27587629  0.41003540  0.60328889     0.06630
H273        H  0.37006827  0.41315066  0.70250469     0.06480
C274        C  0.37972405  0.36085567  0.34344758     0.03520
C275        C  0.35980669  0.39672099  0.32380065    -0.12630
C276        C  0.32281218  0.41612286  0.34169682     0.01020
C277        C  0.30566979  0.39870558  0.37968024    -0.11160
C278        C  0.32434834  0.36332308  0.39996894     0.03510
C279        C  0.36152531  0.34499412  0.38174568    -0.10580
H280        H  0.37287497  0.40936006  0.29429267     0.09100
H281        H  0.27711007  0.41246472  0.39342487     0.06630
H282        H  0.37556115  0.31720185  0.39672096     0.06480
C283        C  0.57991421  0.35919327  0.65434124     0.03520
C284        C  0.60071605  0.34120986  0.61858842    -0.12630
C285        C  0.63934742  0.35875883  0.60219696     0.01020
C286        C  0.65709795  0.39505603  0.62288941    -0.11160
C287        C  0.63722404  0.41342792  0.65913678     0.03510
C288        C  0.59860551  0.39519635  0.67401206    -0.10580
H289        H  0.58695556  0.31313717  0.60374360     0.09100
H290        H  0.68687643  0.40860125  0.61122254     0.06630
H291        H  0.58334178  0.40869644  0.70187511     0.06480
C292        C  0.64175567  0.61791768  0.65705144     0.03520
C293        C  0.66057482  0.63884765  0.62131030    -0.12630
C294        C  0.64295575  0.67698604  0.60409957     0.01020
C295        C  0.60602720  0.69413421  0.62379270    -0.11160
C296        C  0.58652259  0.67448771  0.65969360     0.03510
C297        C  0.60472906  0.63635839  0.67564578    -0.10580
H298        H  0.68907602  0.62555591  0.60705108     0.09100
H299        H  0.59258441  0.72343718  0.61133160     0.06630
H300        H  0.59034300  0.62132356  0.70342628     0.06480
C301        C  0.32590733  0.62118682  0.65450619     0.03520
C302        C  0.30871601  0.64179335  0.61830331    -0.12630
C303        C  0.32771691  0.67920185  0.60062595     0.01020
C304        C  0.36498673  0.69568054  0.61996260    -0.11160
C305        C  0.38305934  0.67587592  0.65624265     0.03510
C306        C  0.36311326  0.63868415  0.67298047    -0.10580
H307        H  0.27984452  0.62902686  0.60424705     0.09100
H308        H  0.37951891  0.72452855  0.60718152     0.06630
H309        H  0.37622528  0.62364901  0.70112401     0.06480
C310        C  0.38454450  0.67028653  0.34555591     0.03520
C311        C  0.36630537  0.68930587  0.38201842    -0.12630
C312        C  0.32803297  0.67439183  0.40034880     0.01020
C313        C  0.30790928  0.63818465  0.38189212    -0.11160
C314        C  0.32543782  0.61762331  0.34545363     0.03510
C315        C  0.36396628  0.63429037  0.32766409    -0.10580
H316        H  0.38164069  0.71702728  0.39596760     0.09100
H317        H  0.27806704  0.62657794  0.39535593     0.06630
H318        H  0.37734254  0.62003359  0.29925292     0.06480
C319        C  0.63819009  0.61759630  0.34913477     0.03520
C320        C  0.65779675  0.63600596  0.38510492    -0.12630
C321        C  0.64223512  0.67413603  0.40302454     0.01020
C322        C  0.60605662  0.69368189  0.38411617    -0.11160
C323        C  0.58627429  0.67619505  0.34765323     0.03510
C324        C  0.60278680  0.63811210  0.33082244    -0.10580
H325        H  0.68565632  0.62105477  0.39873228     0.09100
H326        H  0.59399536  0.72330300  0.39702758     0.06630
H327        H  0.58799372  0.62434937  0.30289657     0.06480
C328        C  0.63713968  0.41379029  0.34458875     0.03520
C329        C  0.65472790  0.39481093  0.38131537    -0.12630
C330        C  0.63758749  0.35699954  0.39942234     0.01020
C331        C  0.60157879  0.33807014  0.37947860    -0.11160
C332        C  0.58270432  0.35658212  0.34257493     0.03510
C333        C  0.60090862  0.39460453  0.32584115    -0.10580
H334        H  0.68263139  0.40939155  0.39562542     0.09100
H335        H  0.58841331  0.30874095  0.39258131     0.06630
H336        H  0.58749518  0.40874839  0.29740051     0.06480
Fe337      Fe  0.72869654  0.01841332  0.81643112     1.65780
Fe338      Fe  0.81046671  0.02041789  0.74442898     1.73250
Fe339      Fe  0.71145090  0.02782122  0.71494034     1.54410
O340        O  0.65943261  0.00528231  0.74850837    -0.81290
O341        O  0.80424869  0.07728129  0.70791244    -0.79590
O342        O  0.68907641  0.96702911  0.79821546    -0.83790
O343        O  0.68050361  0.06450503  0.79977823    -0.78650
O344        O  0.72339489  0.96853415  0.69870569    -0.80420
O345        O  0.82627421  0.06280418  0.79448804    -0.83170
C346        C  0.67786442  0.08898001  0.76667067     0.97600
C347        C  0.66114192  0.97088731  0.76920887     1.05040
O348        O  0.75137732  0.02077884  0.75972314    -1.12150
O349        O  0.82188145  0.96672372  0.78229129    -0.74580
O350        O  0.77443341  0.97227782  0.83565748    -0.78070
O351        O  0.70530448  0.08679229  0.73765802    -0.78760
C352        C  0.80669147  0.95396976  0.81803870     0.96500
O353        O  0.76775381  0.06896590  0.83568424    -0.76720
O354        O  0.79451247  0.97656027  0.69274120    -0.81910
C355        C  0.77886367  0.07977359  0.67696014     0.99120
C356        C  0.75876947  0.95722039  0.68382950     1.05040
O357        O  0.75403846  0.04913216  0.67032218    -0.77550
C358        C  0.80527526  0.08119704  0.82458876     1.03340
C359        C  0.88003242  0.17583818  0.84833316     0.03520
C360        C  0.85917046  0.19455263  0.88372551    -0.12630
C361        C  0.82097768  0.17688266  0.90084105     0.01020
C362        C  0.80409527  0.13930962  0.88171900    -0.11160
C363        C  0.82467500  0.11944717  0.84665357     0.03510
C364        C  0.86259375  0.13817900  0.83064422    -0.10580
H365        H  0.87206854  0.22370117  0.89724922     0.09100
H366        H  0.77463186  0.12561126  0.89398630     0.06630
H367        H  0.87811765  0.12389770  0.80331465     0.06480
Fe368      Fe  0.97996096  0.19910084  0.74908294     1.65780
Fe369      Fe  0.98309982  0.27355138  0.82746620     1.73250
Fe370      Fe  0.98135330  0.30084307  0.72695473     1.54420
O371        O  0.99577683  0.26401473  0.67634178    -0.81290
O372        O  0.93147254  0.31552127  0.81643934    -0.79590
O373        O  0.03125526  0.21373276  0.70667934    -0.83790
O374        O  0.93111203  0.21707902  0.70553130    -0.78650
O375        O  0.04300708  0.30684270  0.74168482    -0.80420
O376        O  0.93606599  0.22881991  0.84580810    -0.83170
C377        C  0.90905858  0.25159072  0.70100581     0.97600
C378        C  0.02928169  0.24306726  0.67858727     1.05040
O379        O  0.98097501  0.25645641  0.76908513    -1.12150
O380        O  0.03205958  0.23076002  0.84075032    -0.74580
O381        O  0.02696354  0.17916497  0.79173023    -0.78070
O382        O  0.91951702  0.28665080  0.71800277    -0.78760
C383        C  0.04471212  0.19562165  0.82439189     0.96500
O384        O  0.93116681  0.18250864  0.79173026    -0.76720
O385        O  0.03209298  0.31936691  0.81093101    -0.81910
C386        C  0.93335158  0.34451386  0.78806705     0.99120
C387        C  0.05412714  0.32370379  0.77617916     1.05040
O388        O  0.96745409  0.34846166  0.76790958    -0.77550
C389        C  0.91826024  0.19680660  0.82766273     1.03340
Fe390      Fe  0.16232641  0.01677234  0.74487388     1.65780
Fe391      Fe  0.23615730  0.01747899  0.82430170     1.73250
Fe392      Fe  0.26305517  0.01618132  0.72544081     1.54420
O393        O  0.22730790  0.99498099  0.67516444    -0.81290
O394        O  0.27472614  0.07189330  0.81328037    -0.79590
O395        O  0.17541005  0.96147507  0.70750287    -0.83790
O396        O  0.18274471  0.06032633  0.69397197    -0.78650
O397        O  0.26843170  0.95620667  0.74373454    -0.80420
O398        O  0.18770765  0.06044880  0.84069264    -0.83170
C399        C  0.21859283  0.08103195  0.68941570     0.97600
C400        C  0.20380911  0.96244124  0.67836547     1.05040
O401        O  0.21894449  0.01704805  0.76619187    -1.12150
O402        O  0.19709260  0.96593078  0.83760888    -0.74580
O403        O  0.14172666  0.97368270  0.79321341    -0.78070
O404        O  0.24747070  0.07648215  0.71603720    -0.78760
C405        C  0.16028236  0.95480745  0.82443896     0.96500
O406        O  0.14688661  0.06951441  0.78287219    -0.76720
O407        O  0.28680417  0.97308345  0.80925683    -0.81910
C408        C  0.30576280  0.06979662  0.78739961     0.99120
C409        C  0.29233445  0.95120687  0.77482050     1.05040
O410        O  0.31005347  0.03663094  0.76556609    -0.77550
C411        C  0.15825715  0.08013640  0.82051243     1.03340
C412        C  0.08223221  0.17350846  0.84386639     0.03520
C413        C  0.10100989  0.19002619  0.88112765    -0.12630
C414        C  0.13756160  0.17129162  0.89898855     0.01020
C415        C  0.15505935  0.13491753  0.87917468    -0.11160
C416        C  0.13725213  0.11753144  0.84183903     0.03510
C417        C  0.10074764  0.13720520  0.82449976    -0.10580
H418        H  0.08764894  0.21821390  0.89582764     0.09100
H419        H  0.18349152  0.12062683  0.89235577     0.06630
H420        H  0.08704245  0.12453402  0.79556221     0.06480
Fe421      Fe  0.98723780  0.83716187  0.74768935     1.65780
Fe422      Fe  0.98453530  0.76055224  0.82539603     1.73250
Fe423      Fe  0.98581441  0.73594036  0.72585976     1.54420
O424        O  0.97226994  0.77437763  0.67562499    -0.81290
O425        O  0.03816804  0.71896970  0.81332736    -0.79590
O426        O  0.93650451  0.82450498  0.70532107    -0.83790
O427        O  0.03505914  0.81904982  0.70289895    -0.78650
O428        O  0.92406935  0.72838544  0.74052716    -0.80420
O429        O  0.02990372  0.80642342  0.84413662    -0.83170
C430        C  0.05657660  0.78424602  0.69854798     0.97600
C431        C  0.93941543  0.79651236  0.67630024     1.05040
O432        O  0.98553964  0.77945726  0.76761803    -1.12150
O433        O  0.93394818  0.80266512  0.83855628    -0.74580
O434        O  0.94045591  0.85640106  0.79107959    -0.78070
O435        O  0.04735698  0.75070072  0.71907429    -0.78760
C436        C  0.92169712  0.83860370  0.82289622     0.96500
O437        O  0.03590675  0.85278842  0.78972902    -0.76720
O438        O  0.93760721  0.71271812  0.80844645    -0.81910
C439        C  0.03431629  0.68949892  0.78575397     0.99120
C440        C  0.91724363  0.70581685  0.77335415     1.05040
O441        O  0.99977077  0.68802197  0.76675400    -0.77550
C442        C  0.04782005  0.83870625  0.82598437     1.03340
C443        C  0.13917803  0.91756782  0.84630539     0.03520
C444        C  0.10276189  0.89794922  0.82891922    -0.12630
C445        C  0.08473901  0.86059462  0.84721895     0.01020
C446        C  0.10376323  0.84325536  0.88414492    -0.11160
C447        C  0.14035708  0.86242957  0.90257511     0.03510
C448        C  0.15740047  0.89966309  0.88334922    -0.10580
H449        H  0.08909441  0.91124293  0.80019131     0.09100
H450        H  0.09064290  0.81420142  0.89794224     0.06630
H451        H  0.18583244  0.91412620  0.89668727     0.06480
Fe452      Fe  0.24237202  0.84236913  0.00087393     1.65780
Fe453      Fe  0.16637664  0.76409396  0.00074044     1.73250
Fe454      Fe  0.26779517  0.74254620  0.99474701     1.54410
O455        O  0.31461723  0.78430265  0.97653068    -0.81290
O456        O  0.18165215  0.72344020  0.05162096    -0.79590
O457        O  0.28016039  0.83354505  0.94429631    -0.83790
O458        O  0.29246391  0.82352176  0.04599431    -0.78650
O459        O  0.24719815  0.73861275  0.93507912    -0.80420
O460        O  0.14778716  0.80931736  0.04641676    -0.83170
C461        C  0.29955574  0.78757830  0.06597745     0.97600
C462        C  0.31013112  0.80659016  0.94388178     1.05040
O463        O  0.22421478  0.78424097  0.00031958    -1.12150
O464        O  0.14963802  0.80466061  0.95136801    -0.74580
O465        O  0.19388993  0.86102208  0.95781769    -0.78070
O466        O  0.28236514  0.75289767  0.05516351    -0.78760
C467        C  0.16246543  0.84176151  0.93969910     0.96500
O468        O  0.20280007  0.85504553  0.05351725    -0.76720
O469        O  0.18242450  0.71707832  0.95413487    -0.81910
C470        C  0.20996900  0.69475351  0.04798522     0.99120
C471        C  0.21603355  0.71374955  0.93045512     1.05040
O472        O  0.23019421  0.69209688  0.01359290    -0.77550
C473        C  0.16603350  0.84075037  0.06520199     1.03340
Fe474      Fe  0.98450477  0.84064524  0.25220344     1.65780
Fe475      Fe  0.98206796  0.76128367  0.17806307     1.73250
Fe476      Fe  0.98837899  0.74043845  0.27901531     1.54410
O477        O  0.04899242  0.76112488  0.28132137    -0.81290
O478        O  0.93657879  0.71176852  0.19971497    -0.79590
O479        O  0.03192732  0.82642670  0.30085260    -0.83790
O480        O  0.93287314  0.82868573  0.29300066    -0.78650
O481        O  0.00504850  0.69191543  0.23983113    -0.80420
O482        O  0.92988859  0.79949944  0.16396401    -0.83170
C483        C  0.93610069  0.80194684  0.32311110     0.97600
C484        C  0.05505947  0.79250234  0.30526129     1.05040
O485        O  0.98323456  0.78192494  0.23514583    -1.12150
O486        O  0.02644482  0.80898609  0.15659964    -0.74580
O487        O  0.03429145  0.85437670  0.21113435    -0.78070
O488        O  0.96985365  0.78084012  0.32675164    -0.78760
C489        C  0.04576330  0.84042313  0.17481641     0.96500
O490        O  0.93815391  0.85684012  0.20591291    -0.76720
O491        O  0.03725170  0.72383255  0.18811542    -0.81910
C492        C  0.91769610  0.70485200  0.23629097     0.99120
C493        C  0.03739351  0.69531957  0.21674911     1.05040
O494        O  0.92787219  0.72457245  0.26971781    -0.77550
C495        C  0.91836028  0.83654838  0.17634425     1.03340
C496        C  0.08420483  0.86160186  0.15448156     0.03520
C497        C  0.10492637  0.84361405  0.11881573    -0.12630
C498        C  0.14348451  0.86125287  0.10238204     0.01020
C499        C  0.16090205  0.89789884  0.12236023    -0.11160
C500        C  0.14072854  0.91711328  0.15792239     0.03510
C501        C  0.10240437  0.89859619  0.17335340    -0.10580
H502        H  0.09159983  0.81501399  0.10458605     0.09100
H503        H  0.19054729  0.91138367  0.11027191     0.06630
H504        H  0.08719238  0.91257258  0.20100295     0.06480
Fe505      Fe  0.79838202  0.76092282  0.99496313     1.65780
Fe506      Fe  0.72847508  0.84338032  0.99575224     1.73250
Fe507      Fe  0.69615472  0.74356199  0.99408255     1.54420
O508        O  0.73330898  0.69310773  0.97763866    -0.81290
O509        O  0.68563210  0.83256590  0.04615003    -0.79590
O510        O  0.78183727  0.72316029  0.94001574    -0.83790
O511        O  0.77672913  0.71362221  0.04072164    -0.78650
O512        O  0.68992852  0.76074046  0.93339522    -0.80420
O513        O  0.77349912  0.85670233  0.04312469    -0.83170
C514        C  0.74136511  0.70891097  0.06211027     0.97600
C515        C  0.75085003  0.69661982  0.94223350     1.05040
O516        O  0.74228313  0.78398931  0.99551341    -1.12150
O517        O  0.77122030  0.85762247  0.94767170    -0.74580
O518        O  0.82102225  0.80675643  0.95073445    -0.78070
O519        O  0.70900272  0.73151132  0.05471684    -0.78760
C520        C  0.80557225  0.84084905  0.93421341     0.96500
O521        O  0.81650183  0.79965642  0.04717831    -0.76720
O522        O  0.68347570  0.83104835  0.94645334    -0.81910
C523        C  0.65488098  0.80619465  0.04435200     0.99120
C524        C  0.67742609  0.79759081  0.92314874     1.05040
O525        O  0.65030344  0.78612358  0.01043073    -0.77550
C526        C  0.80379359  0.83610954  0.06104269     1.03340
C527        C  0.82248780  0.91005111  0.15713080     0.03520
C528        C  0.86000571  0.89227645  0.17429310    -0.12630
C529        C  0.87969687  0.85624786  0.15586672     0.01020
C530        C  0.86113624  0.83804745  0.11888769    -0.11160
C531        C  0.82404963  0.85555330  0.10020537     0.03510
C532        C  0.80518747  0.89151221  0.11999470    -0.10580
H533        H  0.87344827  0.90598244  0.20291357     0.09100
H534        H  0.87562294  0.81026482  0.10455537     0.06630
H535        H  0.77652507  0.90507721  0.10656047     0.06480
Fe536      Fe  0.16336758  0.27021868  0.99772888     1.65780
Fe537      Fe  0.23586631  0.18978874  0.99812033     1.73250
Fe538      Fe  0.26557522  0.29039313  0.99384703     1.54420
O539        O  0.22959424  0.34048277  0.97500010    -0.81290
O540        O  0.27609159  0.20244437  0.04981108    -0.79590
O541        O  0.17739447  0.30868473  0.94332644    -0.83790
O542        O  0.18319336  0.31836957  0.04180955    -0.78650
O543        O  0.27128800  0.27007438  0.93398221    -0.80420
O544        O  0.18920966  0.17441056  0.04398817    -0.83170
C545        C  0.21827004  0.32566321  0.06215213     0.97600
C546        C  0.20701956  0.33672643  0.94279646     1.05040
O547        O  0.22026127  0.24912171  0.99762347    -1.12150
O548        O  0.19471255  0.17568014  0.94859823    -0.74580
O549        O  0.14229706  0.22382501  0.95434869    -0.78070
O550        O  0.25292322  0.30670568  0.05384128    -0.78760
C551        C  0.15922774  0.19125593  0.93645119     0.96500
O552        O  0.14642868  0.23128402  0.05000234    -0.76720
O553        O  0.28423314  0.20198046  0.95071039    -0.81910
C554        C  0.30575998  0.23018999  0.04747075     0.99120
C555        C  0.28921491  0.23503343  0.92644172     1.05040
O556        O  0.31106857  0.24884341  0.01267428    -0.77550
C557        C  0.15880256  0.19435384  0.06255270     1.03340
Fe558      Fe  0.15858393  0.02000596  0.25713378     1.65780
Fe559      Fe  0.23828383  0.01772500  0.18269871     1.73250
Fe560      Fe  0.25868531  0.02110893  0.28334320     1.54420
O561        O  0.24250146  0.08238213  0.28631696    -0.81290
O562        O  0.28520906  0.97044995  0.20323898    -0.79590
O563        O  0.17534193  0.06807101  0.30533589    -0.83790
O564        O  0.16892901  0.96642833  0.29725952    -0.78650
O565        O  0.30854829  0.03651173  0.24479722    -0.80420
O566        O  0.19823239  0.96677495  0.16749911    -0.83170
C567        C  0.19698541  0.96900641  0.32589078     0.97600
C568        C  0.21053373  0.09007129  0.30901227     1.05040
O569        O  0.21727841  0.01826694  0.23956027    -1.12150
O570        O  0.19238694  0.06307469  0.16199452    -0.74580
O571        O  0.14572764  0.07036324  0.21601674    -0.78070
O572        O  0.21547171  0.00428853  0.32960870    -0.78760
C573        C  0.16033908  0.08179541  0.17961009     0.96500
O574        O  0.14109874  0.97402930  0.21042554    -0.76720
O575        O  0.27804780  0.07169303  0.19459081    -0.81910
C576        C  0.29049878  0.95033400  0.23922820     0.99120
C577        C  0.30696223  0.06938196  0.22239410     1.05040
O578        O  0.27123634  0.96030917  0.27309566    -0.77550
C579        C  0.16097689  0.95503117  0.17989910     1.03340
Fe580      Fe  0.97947090  0.19406088  0.25502920     1.65780
Fe581      Fe  0.98099574  0.27190859  0.17870602     1.73250
Fe582      Fe  0.98339841  0.29386290  0.27867027     1.54420
O583        O  0.96587898  0.25447123  0.32753217    -0.81290
O584        O  0.03592454  0.31088177  0.19071899    -0.79590
O585        O  0.92620562  0.20807565  0.29635044    -0.83790
O586        O  0.02629401  0.21025561  0.30284799    -0.78650
O587        O  0.92258592  0.30293548  0.26561626    -0.80420
O588        O  0.02504963  0.22505333  0.15918882    -0.83170
C589        C  0.04861172  0.24502417  0.30718232     0.97600
C590        C  0.93086936  0.23531748  0.32603679     1.05040
O591        O  0.98071654  0.25183748  0.23587781    -1.12150
O592        O  0.92878083  0.23231931  0.16350583    -0.74580
O593        O  0.93404505  0.17676954  0.20868403    -0.78070
O594        O  0.04369090  0.27594609  0.28246211    -0.78760
C595        C  0.91613040  0.19558610  0.17710393     0.96500
O596        O  0.03040446  0.17896567  0.21394421    -0.76720
O597        O  0.93630173  0.32084570  0.19826465    -0.81910
C598        C  0.03430850  0.34058780  0.21806037     0.99120
C599        C  0.91581407  0.32624152  0.23392721     1.05040
O600        O  0.00134781  0.34351480  0.24042601    -0.77550
C601        C  0.04325210  0.19342074  0.17770687     1.03340
C602        C  0.08178231  0.17326314  0.15677724     0.03520
C603        C  0.10052205  0.19124258  0.11954934    -0.12630
C604        C  0.13785187  0.17380424  0.10094107     0.01020
C605        C  0.15641554  0.13742290  0.12028104    -0.11160
C606        C  0.13895295  0.11891250  0.15766396     0.03510
C607        C  0.10156636  0.13722941  0.17536643    -0.10580
H608        H  0.08634039  0.21934728  0.10529043     0.09100
H609        H  0.18531605  0.12412220  0.10684985     0.06630
H610        H  0.08794985  0.12358937  0.20420740     0.06480
Fe611      Fe  0.79596613  0.27441908  0.00384750     1.65780
Fe612      Fe  0.72065296  0.19520275  0.00023205     1.73250
Fe613      Fe  0.69459681  0.29535973  0.00925450     1.54410
O614        O  0.71486739  0.29830203  0.06940584    -0.81290
O615        O  0.67092653  0.21497416  0.95506876    -0.79590
O616        O  0.77873884  0.32203382  0.05135019    -0.83790
O617        O  0.78114368  0.31572585  0.95225599    -0.78650
O618        O  0.64706614  0.25389037  0.02616641    -0.80420
O619        O  0.76104117  0.18392533  0.94833973    -0.83170
C620        C  0.75235626  0.34399204  0.95614467     0.97600
C621        C  0.74431978  0.32511432  0.07423972     1.05040
O622        O  0.73819065  0.25366503  0.00306335    -1.12150
O623        O  0.76866516  0.17562340  0.04436089    -0.74580
O624        O  0.81189830  0.23250407  0.05336208    -0.78070
O625        O  0.73253590  0.34592692  0.99089386    -0.78760
C626        C  0.79956520  0.19466093  0.06379160     0.96500
O627        O  0.81590808  0.22931275  0.95741498    -0.76720
O628        O  0.68087900  0.20120559  0.05481775    -0.81910
C629        C  0.66236852  0.25177624  0.93737283     0.99120
C630        C  0.65020437  0.22729931  0.05569659     1.05040
O631        O  0.67974545  0.28628341  0.94889529    -0.77550
C632        C  0.79806170  0.19801325  0.93772741     1.03340
Fe633      Fe  0.80517643  0.01333173  0.25415227     1.65780
Fe634      Fe  0.72808516  0.01365115  0.17826503     1.73250
Fe635      Fe  0.70462589  0.02527240  0.27881659     1.54420
O636        O  0.74268578  0.00323669  0.32641680    -0.81290
O637        O  0.69487905  0.07177523  0.18573817    -0.79590
O638        O  0.78810636  0.96174686  0.29586629    -0.83790
O639        O  0.79387294  0.06032613  0.30275350    -0.78650
O640        O  0.68128319  0.96667400  0.27071421    -0.80420
O641        O  0.77755607  0.05438975  0.15662719    -0.83170
C642        C  0.76159952  0.08533378  0.30598958     0.97600
C643        C  0.75921763  0.96702139  0.32421857     1.05040
O644        O  0.74664895  0.01495465  0.23591069    -1.12150
O645        O  0.76413067  0.95894455  0.16594299    -0.74580
O646        O  0.82095955  0.96714670  0.20813855    -0.78070
O647        O  0.73185968  0.08278579  0.28000454    -0.78760
C648        C  0.80124981  0.94760059  0.17826689     0.96500
O649        O  0.82107798  0.06378172  0.21228709    -0.76720
O650        O  0.67582907  0.97242035  0.19927736    -0.81910
C651        C  0.66701069  0.07798714  0.21425174     0.99120
C652        C  0.66568122  0.95496361  0.23563918     1.05040
O653        O  0.65876438  0.04862816  0.24022203    -0.77550
C654        C  0.80764353  0.07478975  0.17532369     1.03340
C655        C  0.82658417  0.11411837  0.15400929     0.03520
C656        C  0.86234222  0.13478505  0.17207668    -0.12630
C657        C  0.87865838  0.17382580  0.15574211     0.01020
C658        C  0.85811884  0.19234204  0.12006775    -0.11160
C659        C  0.82212336  0.17267553  0.10061852     0.03510
C660        C  0.80701376  0.13332506  0.11800828    -0.10580
H661        H  0.87718294  0.12065645  0.19979137     0.09100
H662        H  0.87003467  0.22251477  0.10762197     0.06630
H663        H  0.77903900  0.11833184  0.10435856     0.06480
C664        C  0.88341775  0.86032773  0.84199389     0.03520
C665        C  0.86470616  0.89675753  0.82254032    -0.12630
C666        C  0.82741759  0.91604385  0.83964631     0.01020
C667        C  0.80936705  0.89797611  0.87694872    -0.11160
C668        C  0.82726347  0.86150977  0.89677552     0.03510
C669        C  0.86421203  0.84332759  0.87905627    -0.10580
H670        H  0.87886904  0.90974637  0.79368909     0.09100
H671        H  0.78059696  0.91186671  0.89010861     0.06630
H672        H  0.87771482  0.81517790  0.89388202     0.06480
C673        C  0.22157350  0.11809116  0.34514446    -0.04950
C674        C  0.21394971  0.16241998  0.34239802    -0.02070
C675        C  0.23793104  0.19119323  0.36764406     0.02920
C676        C  0.26475696  0.17542896  0.40012353    -0.04950
C677        C  0.27244550  0.13143564  0.40280976    -0.02060
C678        C  0.25440323  0.10371950  0.37299498     0.02920
C679        C  0.18375853  0.17848684  0.31155187     0.37570
C680        C  0.30004211  0.11471208  0.43593131     0.37560
C681        C  0.27535753  0.06288116  0.36719968     0.35980
C682        C  0.23679399  0.23662736  0.35856684     0.35980
N683        N  0.29459294  0.03173489  0.36262008    -0.38840
N684        N  0.23620340  0.27281992  0.35060135    -0.38840
N685        N  0.32167880  0.10140417  0.46252304    -0.38280
N686        N  0.15953569  0.19112568  0.28694544    -0.38290
C687        C  0.13574535  0.27634171  0.40661913    -0.04950
C688        C  0.12188572  0.23298252  0.40124969    -0.02070
C689        C  0.09270577  0.22226371  0.36944112     0.02920
C690        C  0.07490234  0.25485518  0.34482622    -0.04950
C691        C  0.08255113  0.29865136  0.35629004    -0.02060
C692        C  0.11495503  0.30915897  0.38489938     0.02920
C693        C  0.13774065  0.19849328  0.42767882     0.37570
C694        C  0.05621935  0.33347091  0.34074490     0.37560
C695        C  0.12783790  0.35356883  0.39036460     0.35980
C696        C  0.08150300  0.17768636  0.36222040     0.35980
N697        N  0.13817095  0.38895425  0.39434672    -0.38840
N698        N  0.07261682  0.14212339  0.35680405    -0.38840
N699        N  0.03555084  0.36170093  0.32912386    -0.38280
N700        N  0.15034160  0.17020528  0.44765316    -0.38290
C701        C  0.06548929  0.25497767  0.64941509    -0.04950
C702        C  0.07627708  0.29869588  0.64053375    -0.02070
C703        C  0.10968893  0.30939905  0.61174132     0.02920
C704        C  0.12877077  0.27732804  0.58695374    -0.04950
C705        C  0.11517853  0.23402361  0.59355599    -0.02060
C706        C  0.08644468  0.22290419  0.62660974     0.02920
C707        C  0.05243186  0.33371144  0.65881467     0.37570
C708        C  0.12565978  0.20086305  0.56353116     0.37560
C709        C  0.07471974  0.17841370  0.63407067     0.35980
C710        C  0.12142954  0.35399954  0.60490807     0.35980
N711        N  0.06454121  0.14332177  0.64060607    -0.38840
N712        N  0.13060621  0.38959389  0.59966254    -0.38840
N713        N  0.13073430  0.17407486  0.53889202    -0.38280
N714        N  0.03483866  0.36320221  0.67225439    -0.38290
C715        C  0.23235367  0.10502694  0.65054145    -0.04950
C716        C  0.20561613  0.11013127  0.61518561    -0.02070
C717        C  0.22188179  0.13151070  0.57928044     0.02920
C718        C  0.25835548  0.15790268  0.58303450    -0.04950
C719        C  0.28718773  0.14990303  0.61541527    -0.02060
C720        C  0.27616175  0.11906275  0.64610005     0.02920
C721        C  0.16251818  0.09323029  0.61463365     0.37570
C722        C  0.32831710  0.17151145  0.61608469     0.37560
C723        C  0.31117535  0.09734671  0.66682874     0.35980
C724        C  0.20573629  0.12151034  0.53746214     0.35980
N725        N  0.33960299  0.07912374  0.68142728    -0.38840
N726        N  0.19399849  0.11168909  0.50405488    -0.38840
N727        N  0.36120911  0.18863547  0.61649600    -0.38280
N728        N  0.12786615  0.08015164  0.61413822    -0.38290
C729        C  0.33656387  0.10518609  0.77882953    -0.04950
C730        C  0.32238056  0.14471010  0.76200925    -0.02070
C731        C  0.35137506  0.17246131  0.74029805     0.02920
C732        C  0.39487136  0.16124448  0.73595378    -0.04950
C733        C  0.40851665  0.12116989  0.75222356    -0.02060
C734        C  0.38005003  0.09432871  0.77477103     0.02920
C735        C  0.27754877  0.15573526  0.76479683     0.37570
C736        C  0.45183792  0.10643309  0.74447260     0.37560
C737        C  0.39536862  0.05443265  0.79292353     0.35980
C738        C  0.33602990  0.21158377  0.72104575     0.35980
N739        N  0.40741783  0.02261495  0.80732644    -0.38840
N740        N  0.32358850  0.24225735  0.70468086    -0.38840
N741        N  0.48627789  0.09462352  0.73830466    -0.38280
N742        N  0.24172483  0.16444118  0.76677409    -0.38290
C743        C  0.57610146  0.30096670  0.84459793    -0.04950
C744        C  0.60901838  0.27273699  0.83197067    -0.02070
C745        C  0.63377013  0.25112480  0.86289615     0.02920
C746        C  0.62753926  0.25960634  0.90653530    -0.04950
C747        C  0.59640296  0.29049618  0.91849672    -0.02060
C748        C  0.57179695  0.31145792  0.88764733     0.02920
C749        C  0.62006383  0.26887684  0.78734359     0.37570
C750        C  0.59082285  0.30306557  0.96261640     0.37560
C751        C  0.54302771  0.34565753  0.89977219     0.35980
C752        C  0.66653394  0.22129320  0.84982159     0.35980
N753        N  0.52043294  0.37321892  0.90926914    -0.38840
N754        N  0.69250994  0.19726312  0.83940176    -0.38840
N755        N  0.58558100  0.31459866  0.99719280    -0.38280
N756        N  0.62996645  0.26620883  0.75187881    -0.38290
C757        C  0.57394208  0.17228362  0.73536674    -0.04950
C758        C  0.57730153  0.15547946  0.77750549    -0.02070
C759        C  0.61136643  0.12873458  0.78838773     0.02920
C760        C  0.63961143  0.11489567  0.75641561    -0.04950
C761        C  0.63041647  0.12510193  0.71283503    -0.02060
C762        C  0.59955148  0.15578631  0.70285282     0.02920
C763        C  0.54546807  0.16524363  0.80995972     0.37570
C764        C  0.65059571  0.10290993  0.67750038     0.37560
C765        C  0.59523964  0.17116780  0.65939797     0.35980
C766        C  0.61713308  0.11611138  0.83249142     0.35980
N767        N  0.59202752  0.18346850  0.62476753    -0.38840
N768        N  0.62150235  0.10618772  0.86772514    -0.38840
N769        N  0.66592176  0.08527011  0.64896282    -0.38280
N770        N  0.52014066  0.17286142  0.83581638    -0.38290
C771        C  0.32229165  0.23894531  0.89348373    -0.04950
C772        C  0.36441813  0.24487434  0.90791166    -0.02070
C773        C  0.39292853  0.27128568  0.88491985     0.02920
C774        C  0.38094366  0.28920612  0.84549109    -0.04950
C775        C  0.33902440  0.28299714  0.83076613    -0.02060
C776        C  0.31000998  0.25738694  0.85424957     0.02920
C777        C  0.37814248  0.22551072  0.94758689     0.37570
C778        C  0.32596916  0.30330403  0.79141485     0.37560
C779        C  0.26660825  0.25153286  0.83932901     0.35980
C780        C  0.43547089  0.27871198  0.90134750     0.35980
N781        N  0.23191560  0.24680801  0.82770865    -0.38840
N782        N  0.46899138  0.28405076  0.91564402    -0.38840
N783        N  0.31542549  0.32010224  0.76035450    -0.38280
N784        N  0.38989883  0.21024773  0.97898822    -0.38290
C785        C  0.69210326  0.62022583  0.84248992    -0.04950
C786        C  0.72674413  0.64792492  0.83184220    -0.02070
C787        C  0.74774851  0.67190787  0.86396567     0.02920
C788        C  0.72982763  0.67379807  0.90528735    -0.04950
C789        C  0.68809985  0.65548590  0.91090898    -0.02060
C790        C  0.67148413  0.62609141  0.88149038     0.02920
C791        C  0.73608860  0.65719125  0.78761182     0.37570
C792        C  0.65890913  0.67127526  0.94280441     0.37560
C793        C  0.63211333  0.60288199  0.89064463     0.35980
C794        C  0.78578149  0.69655752  0.85362542     0.35980
N795        N  0.60071758  0.58438577  0.89789099    -0.38840
N796        N  0.81563559  0.71711664  0.84537894    -0.38730
N797        N  0.63388337  0.68518574  0.96596139    -0.38280
N798        N  0.74294273  0.66617530  0.75240978    -0.38290
C799        C  0.82899835  0.60489281  0.74748911    -0.04950
C800        C  0.84345931  0.61028787  0.79018586    -0.02070
C801        C  0.87320080  0.64261731  0.79971836     0.02920
C802        C  0.89101384  0.66689167  0.76627999    -0.04950
C803        C  0.88530535  0.65222113  0.72383478    -0.02060
C804        C  0.85156485  0.62463720  0.71409568     0.02920
C805        C  0.82889239  0.58204396  0.82432013     0.37570
C806        C  0.91803950  0.65923186  0.69168641     0.37560
C807        C  0.84031471  0.61732559  0.66996976     0.35980
C808        C  0.88649143  0.64919447  0.84335718     0.35980
N809        N  0.83126470  0.61173538  0.63477049    -0.38840
N810        N  0.89712729  0.65405352  0.87821550    -0.38840
N811        N  0.94514587  0.66255898  0.66670384    -0.38280
N812        N  0.81749334  0.55950896  0.85152430    -0.38290
C813        C  0.82788637  0.42592381  0.75039560    -0.04950
C814        C  0.85497007  0.40864514  0.71922792    -0.02070
C815        C  0.89034922  0.38378821  0.73147200     0.02920
C816        C  0.89601487  0.37108851  0.77493110    -0.04950
C817        C  0.86665005  0.38551422  0.80556632    -0.02060
C818        C  0.83509337  0.41525277  0.79405704     0.02920
C819        C  0.84890194  0.41967522  0.67467979     0.37570
C820        C  0.87065420  0.37240902  0.84981403     0.37560
C821        C  0.81378269  0.43746799  0.82852119     0.35980
C822        C  0.92066363  0.37250861  0.69836679     0.35980
N823        N  0.79947129  0.45499027  0.85764900    -0.38840
N824        N  0.94351696  0.36399506  0.67062066    -0.38840
N825        N  0.87346590  0.36191137  0.88505754    -0.38280
N826        N  0.84421023  0.42837167  0.63917500    -0.38290
C827        C  0.69259955  0.42161413  0.85819114    -0.04950
C828        C  0.69981695  0.43788664  0.89939643    -0.02070
C829        C  0.72240010  0.41373821  0.92988386     0.02920
C830        C  0.73678864  0.37187722  0.92053789    -0.04950
C831        C  0.72817405  0.35481008  0.87979263    -0.02060
C832        C  0.70615959  0.37946946  0.84900784     0.02920
C833        C  0.68746224  0.48135051  0.90945636     0.37570
C834        C  0.74236132  0.31210729  0.86914788     0.37560
C835        C  0.69950262  0.36251418  0.80664703     0.35980
C836        C  0.73326753  0.43345407  0.97017793     0.35980
N837        N  0.69422447  0.34919959  0.77276577    -0.38840
N838        N  0.74204233  0.44963809  0.00201400    -0.38840
N839        N  0.75405437  0.27815047  0.86060179    -0.38280
N840        N  0.67806598  0.51593915  0.91826933    -0.38290
C841        C  0.58267938  0.75034406  0.84506169    -0.04950
C842        C  0.62546503  0.74817424  0.83113600    -0.02070
C843        C  0.65718734  0.77211229  0.85217866     0.02920
C844        C  0.64673766  0.79640173  0.88860600    -0.04950
C845        C  0.60403734  0.80043945  0.90111369    -0.02060
C846        C  0.57234123  0.77711566  0.88010001     0.02920
C847        C  0.63617313  0.72344454  0.79362227     0.37570
C848        C  0.59273149  0.82757871  0.93698356     0.37560
C849        C  0.52863598  0.78586118  0.89201587     0.35980
C850        C  0.70067856  0.77288697  0.83617252     0.35980
N851        N  0.49533569  0.79734731  0.90283114    -0.38840
N852        N  0.73518440  0.77456629  0.82281727    -0.38840
N853        N  0.58355372  0.84908921  0.96546552    -0.38280
N854        N  0.64430398  0.70367293  0.76361596    -0.38290
C855        C  0.56733371  0.87325754  0.73716348    -0.04950
C856        C  0.59217162  0.89277130  0.70486930    -0.02070
C857        C  0.62057154  0.92649675  0.71502156     0.02920
C858        C  0.63032985  0.93597690  0.75828151    -0.04950
C859        C  0.60763734  0.91437837  0.79069049    -0.02060
C860        C  0.57414777  0.88602980  0.78014228     0.02920
C861        C  0.58640633  0.88056296  0.66073204     0.37570
C862        C  0.61591945  0.92417783  0.83507382     0.37560
C863        C  0.54488454  0.87360038  0.81386147     0.35980
C864        C  0.63641477  0.95315135  0.68037775     0.35980
N865        N  0.52120906  0.86617140  0.84132977    -0.38840
N866        N  0.64719258  0.97456705  0.65205378    -0.38840
N867        N  0.62240837  0.93179839  0.87046871    -0.38280
N868        N  0.58221863  0.87076133  0.62551854    -0.38290
C869        C  0.33941643  0.79675353  0.90710904    -0.04950
C870        C  0.32425094  0.78162717  0.86737060    -0.02070
C871        C  0.35150875  0.75694718  0.84019431     0.02920
C872        C  0.39162122  0.74243048  0.85518876    -0.04950
C873        C  0.40346536  0.75424013  0.89668375    -0.02060
C874        C  0.38167637  0.78698965  0.91800323     0.02920
C875        C  0.28120490  0.79161852  0.85443444     0.37570
C876        C  0.43651867  0.73059033  0.91842836     0.37560
C877        C  0.40321759  0.81211030  0.95015004     0.35980
C878        C  0.33815368  0.74623927  0.79754810     0.35980
N879        N  0.42051898  0.83269865  0.97533734    -0.38840
N880        N  0.32751593  0.73772631  0.76339963    -0.38840
N881        N  0.46245320  0.71120956  0.93594554    -0.38280
N882        N  0.24676663  0.79963628  0.84410165    -0.38290
C883        C  0.38786974  0.85970281  0.74405126    -0.04950
C884        C  0.38212704  0.87265953  0.78740703    -0.02070
C885        C  0.35102384  0.90272407  0.79822884     0.02920
C886        C  0.32949842  0.92397102  0.76573573    -0.04950
C887        C  0.34231329  0.91748459  0.72230630    -0.02060
C888        C  0.36868936  0.88324767  0.71153690     0.02920
C889        C  0.40901560  0.85688712  0.82134874     0.37570
C890        C  0.32970226  0.94635608  0.68820407     0.37560
C891        C  0.37512839  0.87207597  0.66709553     0.35980
C892        C  0.34134299  0.91135191  0.84266034     0.35980
N893        N  0.38000778  0.86316859  0.63167405    -0.38840
N894        N  0.33385350  0.91814377  0.87811737    -0.38840
N895        N  0.32010385  0.96901589  0.66069718    -0.38280
N896        N  0.43016514  0.84509519  0.84894620    -0.38290
C897        C  0.08787828  0.35601222  0.77012450    -0.04950
C898        C  0.12390778  0.34516811  0.74486368    -0.02070
C899        C  0.14620393  0.37695022  0.72142699     0.02920
C900        C  0.13252111  0.41976547  0.72264371    -0.04950
C901        C  0.09609342  0.43019366  0.74756108    -0.02060
C902        C  0.07519349  0.39892307  0.77249159     0.02920
C903        C  0.13722217  0.30086861  0.74221735     0.37570
C904        C  0.08186729  0.47402727  0.75129847     0.37560
C905        C  0.03940699  0.41092281  0.79959687     0.35980
C906        C  0.18428513  0.36603589  0.69732777     0.35980
N907        N  0.01109680  0.42077435  0.82124828    -0.38840
N908        N  0.21462148  0.35737324  0.67802645    -0.38840
N909        N  0.06902458  0.50810663  0.75704261    -0.38280
N910        N  0.14771533  0.26551314  0.73998045    -0.38290
C911        C  0.12719304  0.61236808  0.71730891    -0.04950
C912        C  0.08339773  0.60257480  0.71762709    -0.02070
C913        C  0.05535282  0.62315787  0.74598613     0.02920
C914        C  0.06865802  0.66010955  0.76903298    -0.04950
C915        C  0.11219408  0.67271568  0.76572267    -0.02060
C916        C  0.14144167  0.64843810  0.74063679     0.02920
C917        C  0.06711846  0.57124295  0.68767679     0.37570
C918        C  0.12704104  0.71043077  0.78795523     0.37560
C919        C  0.18600935  0.66099153  0.73831798     0.35980
C920        C  0.01253974  0.60545632  0.75123053     0.35980
N921        N  0.22156836  0.67127567  0.73646931    -0.38840
N922        N  0.97852911  0.59117615  0.75530316    -0.38840
N923        N  0.13896670  0.74047375  0.80584103    -0.38280
N924        N  0.05425474  0.54650245  0.66356551    -0.38290
C925        C  0.23942671  0.61524386  0.83927441    -0.04950
C926        C  0.19792583  0.61909427  0.85790488    -0.02070
C927        C  0.18954370  0.65154719  0.88729514     0.02920
C928        C  0.22342149  0.67728364  0.90160571    -0.04950
C929        C  0.26617709  0.66690426  0.88923744    -0.02060
C930        C  0.27362771  0.63886804  0.85556424     0.02920
C931        C  0.16357392  0.58930683  0.84789299     0.37570
C932        C  0.30295300  0.68118057  0.91341239     0.37560
C933        C  0.31628926  0.63527525  0.83743088     0.35980
C934        C  0.14630789  0.65710354  0.90335730     0.35980
N935        N  0.35024545  0.63275592  0.82287400    -0.38840
N936        N  0.11183427  0.66095334  0.91627724    -0.38840
N937        N  0.33227927  0.69148768  0.93315065    -0.38280
N938        N  0.13585759  0.56598393  0.84020237    -0.38290
C939        C  0.21756677  0.36494961  0.90562117    -0.04950
C940        C  0.18518283  0.38718769  0.88446993    -0.02070
C941        C  0.19592758  0.42129338  0.85666759     0.02920
C942        C  0.23936299  0.42987438  0.84500628    -0.04950
C943        C  0.27154339  0.40456384  0.86291039    -0.02060
C944        C  0.26107524  0.37432495  0.89484784     0.02920
C945        C  0.14064110  0.37742511  0.89383624     0.37570
C946        C  0.31603557  0.41192652  0.85125551     0.37560
C947        C  0.29614171  0.35530924  0.91782174     0.35980
C948        C  0.16169938  0.44891590  0.84303973     0.35980
N949        N  0.32537528  0.34173696  0.93549403    -0.38840
N950        N  0.13360673  0.47087088  0.83397507    -0.38840
N951        N  0.35152080  0.41750512  0.84207056    -0.38280
N952        N  0.10511284  0.36961219  0.90102429    -0.38290
C953        C  0.06875253  0.37270997  0.22660698    -0.04950
C954        C  0.10825976  0.36108628  0.24487774    -0.02070
C955        C  0.13400377  0.39207580  0.26628041     0.02920
C956        C  0.12151148  0.43571025  0.26805102    -0.04950
C957        C  0.08327251  0.44704504  0.24622902    -0.02060
C958        C  0.05683231  0.41591422  0.22734375     0.02920
C959        C  0.12224256  0.31712102  0.24210681     0.37570
C960        C  0.07272110  0.49099763  0.23724708     0.37560
C961        C  0.01698283  0.42870822  0.20739148     0.35980
C962        C  0.17429991  0.37911726  0.28446362     0.35980
N963        N  0.98524335  0.43879938  0.19173105    -0.38840
N964        N  0.20653993  0.36868704  0.29883837    -0.38840
N965        N  0.06433236  0.52516696  0.22629486    -0.38280
N966        N  0.13366739  0.28208184  0.23962789    -0.38290
C967        C  0.22177294  0.36058323  0.09307690    -0.04950
C968        C  0.25929754  0.38631174  0.09302812    -0.02070
C969        C  0.26770141  0.41381011  0.12719413     0.02920
C970        C  0.23480941  0.42227488  0.15688245    -0.04950
C971        C  0.19333279  0.40488335  0.14866677    -0.02060
C972        C  0.18851129  0.37009997  0.12129503     0.02920
C973        C  0.28575112  0.38962168  0.05501311     0.37570
C974        C  0.15510362  0.42904676  0.15773893     0.37560
C975        C  0.14853008  0.34628573  0.12072882     0.35980
C976        C  0.30833853  0.43637942  0.12844083     0.35980
N977        N  0.11663882  0.32732604  0.12053050    -0.38840
N978        N  0.34061731  0.45465018  0.12904647    -0.38840
N979        N  0.12482831  0.44961214  0.16173576    -0.38280
N980        N  0.30567282  0.39431797  0.02416390    -0.38290
C981        C  0.22185063  0.66573355  0.08365273    -0.04950
C982        C  0.26522206  0.65342928  0.08980995    -0.02070
C983        C  0.27659348  0.62729519  0.12454625     0.02920
C984        C  0.24451856  0.60743488  0.14920346    -0.04950
C985        C  0.20082354  0.61697967  0.14071245    -0.02060
C986        C  0.19003851  0.64837854  0.11050977     0.02920
C987        C  0.29833586  0.66429661  0.05903479     0.37570
C988        C  0.16602538  0.59245013  0.15981786     0.37560
C989        C  0.14549316  0.65963370  0.10456910     0.35980
C990        C  0.32120492  0.61768940  0.13223947     0.35980
N991        N  0.10997782  0.66848536  0.10006423    -0.38840
N992        N  0.35680001  0.61026178  0.13834544    -0.38840
N993        N  0.13749525  0.57285655  0.17345894    -0.38280
N994        N  0.32505148  0.67152433  0.03433613    -0.38290
C995        C  0.07479367  0.66861973  0.22869691    -0.04950
C996        C  0.06630259  0.62908108  0.24941303    -0.02070
C997        C  0.09686483  0.61051918  0.27633859     0.02920
C998        C  0.13925606  0.62558698  0.27562106    -0.04950
C999        C  0.14887779  0.66380856  0.25270767    -0.02060
C1000       C  0.11651642  0.68602917  0.23056734     0.02920
C1001       C  0.02608638  0.60698783  0.24212947     0.37570
C1002       C  0.19258441  0.67946873  0.25096632     0.37560
C1003       C  0.12641292  0.72635654  0.20959305     0.35980
C1004       C  0.08472206  0.57554990  0.30454686     0.35980
N1005       N  0.13441379  0.75847953  0.19274674    -0.38840
N1006       N  0.07489751  0.54801804  0.32745682    -0.38840
N1007       N  0.22750766  0.69177902  0.24933445    -0.38280
N1008       N  0.99441758  0.58908402  0.23518139    -0.38290
C1009       C  0.39867329  0.74568959  0.15011284    -0.04950
C1010       C  0.35541712  0.74214686  0.16249026    -0.02070
C1011       C  0.32350113  0.76270381  0.13799403     0.02920
C1012       C  0.33394350  0.78082928  0.09753979    -0.04950
C1013       C  0.37539988  0.77274304  0.08154878    -0.02060
C1014       C  0.40838380  0.76176247  0.10913289     0.02920
C1015       C  0.34370997  0.71376937  0.19728387     0.37570
C1016       C  0.38110420  0.75875923  0.03815450     0.37560
C1017       C  0.45177500  0.76205199  0.09258124     0.35980
C1018       C  0.27930332  0.76079505  0.15207090     0.35980
N1019       N  0.48581734  0.76311486  0.07810732    -0.38840
N1020       N  0.24397664  0.75892856  0.16308732    -0.38840
N1021       N  0.38680652  0.74222432  0.00581788    -0.38280
N1022       N  0.33485893  0.68968859  0.22410842    -0.38290
C1023       C  0.57988560  0.76873220  0.15633309    -0.04950
C1024       C  0.57833346  0.74410614  0.11866965    -0.02070
C1025       C  0.59704357  0.76063712  0.08064976     0.02920
C1026       C  0.62766253  0.79462426  0.08231326    -0.04950
C1027       C  0.63227670  0.81617502  0.12127068    -0.02060
C1028       C  0.60227708  0.80858352  0.15367666     0.02920
C1029       C  0.55313536  0.70502983  0.11694030     0.37570
C1030       C  0.66372009  0.84992896  0.12724156     0.37560
C1031       C  0.58353149  0.84688222  0.17097183     0.35980
C1032       C  0.58040721  0.74603734  0.04021381     0.35980
N1033       N  0.56635543  0.87786905  0.18099508    -0.38840
N1034       N  0.56592893  0.73505927  0.00824670    -0.38840
N1035       N  0.68895803  0.87658032  0.13255333    -0.38280
N1036       N  0.53286020  0.67398022  0.11509299    -0.38290
C1037       C  0.56580905  0.87418622  0.28239816    -0.04950
C1038       C  0.55722920  0.91648802  0.26856628    -0.02070
C1039       C  0.58925681  0.94125652  0.24851120     0.02920
C1040       C  0.63019811  0.92430918  0.24115016    -0.04950
C1041       C  0.63902301  0.88219870  0.25475513    -0.02060
C1042       C  0.60728409  0.85737217  0.27585529     0.02920
C1043       C  0.51504922  0.93495189  0.27347321     0.37570
C1044       C  0.68044431  0.86393700  0.24544362     0.37560
C1045       C  0.61696776  0.81389246  0.28872603     0.35980
C1046       C  0.57964111  0.98479444  0.23609250     0.35980
N1047       N  0.62476241  0.77921227  0.29896988    -0.38840
N1048       N  0.57001945  0.01924578  0.22704574    -0.38840
N1049       N  0.71307369  0.84885527  0.23713170    -0.38280
N1050       N  0.48191350  0.95093186  0.27581136    -0.38290
C1051       C  0.37176739  0.85195465  0.28435164    -0.04950
C1052       C  0.33568192  0.84201376  0.25962611    -0.02070
C1053       C  0.31265936  0.87457465  0.23907492     0.02920
C1054       C  0.32318698  0.91766585  0.24658596    -0.04950
C1055       C  0.35580706  0.92742851  0.27653490    -0.02060
C1056       C  0.37977985  0.89460286  0.29530220     0.02920
C1057       C  0.31885941  0.79896416  0.26101090     0.37570
C1058       C  0.36333280  0.97092231  0.29074449     0.37560
C1059       C  0.41185757  0.90445134  0.32698631     0.35980
C1060       C  0.27649626  0.86400511  0.21242226     0.35980
N1061       N  0.43704856  0.91210823  0.35268027    -0.38840
N1062       N  0.24763049  0.85614886  0.19097240    -0.38840
N1063       N  0.37020920  0.00475008  0.30395931    -0.38280
N1064       N  0.30352871  0.76537779  0.26444493    -0.38290
C1065       C  0.73295193  0.36350849  0.10069564    -0.04950
C1066       C  0.75807269  0.40120652  0.10063833    -0.02070
C1067       C  0.74237036  0.43831738  0.12085731     0.02920
C1068       C  0.70695451  0.43553178  0.14975132    -0.04950
C1069       C  0.68219610  0.39787207  0.14982465    -0.02060
C1070       C  0.69163533  0.36577642  0.12037999     0.02920
C1071       C  0.79748246  0.40391857  0.07615901     0.37570
C1072       C  0.64434590  0.39317001  0.17656857     0.37560
C1073       C  0.65490470  0.34430233  0.10230322     0.35980
C1074       C  0.75989017  0.47950300  0.10772850     0.35980
N1075       N  0.62479825  0.33020147  0.08640289    -0.38840
N1076       N  0.77330838  0.51226344  0.09635050    -0.38840
N1077       N  0.61426142  0.38908449  0.19789500    -0.38280
N1078       N  0.82874480  0.40660250  0.05638462    -0.38290
C1079       C  0.73422461  0.67378078  0.09314676    -0.04950
C1080       C  0.76817853  0.65320271  0.11341948    -0.02070
C1081       C  0.75919574  0.62256839  0.14508665     0.02920
C1082       C  0.71621501  0.61612256  0.16012072    -0.04950
C1083       C  0.68259004  0.63511637  0.13842779    -0.02060
C1084       C  0.69159520  0.66014274  0.10260323     0.02920
C1085       C  0.81221692  0.66211866  0.10116778     0.37570
C1086       C  0.63857123  0.62862539  0.15225817     0.37560
C1087       C  0.65707224  0.66571568  0.07296328     0.35980
C1088       C  0.79461740  0.59709920  0.16051826     0.35980
N1089       N  0.62799844  0.66658242  0.05065742    -0.38840
N1090       N  0.82324975  0.57725119  0.17240656    -0.38840
N1091       N  0.60364572  0.62330498  0.16350938    -0.38280
N1092       N  0.84740657  0.66887839  0.09158264    -0.38290
C1093       C  0.82565054  0.61336275  0.28223807    -0.04950
C1094       C  0.81302183  0.64726725  0.25503491    -0.02070
C1095       C  0.84413938  0.67279815  0.23382852     0.02920
C1096       C  0.88739021  0.66920449  0.24497841    -0.04950
C1097       C  0.89870845  0.63882183  0.27686392    -0.02060
C1098       C  0.86869257  0.60933284  0.29285298     0.02920
C1099       C  0.76850529  0.65885558  0.25189273     0.37570
C1100       C  0.93984994  0.63999129  0.29732906     0.37560
C1101       C  0.88187324  0.57537632  0.32166602     0.35980
C1102       C  0.83139312  0.70429490  0.20247033     0.35980
N1103       N  0.89232690  0.54831990  0.34451956    -0.38840
N1104       N  0.82120454  0.72944477  0.17743230    -0.38840
N1105       N  0.97123776  0.64000886  0.31635245    -0.38280
N1106       N  0.73328324  0.66969046  0.25003205    -0.38290
C1107       C  0.82956608  0.42782372  0.26356113    -0.04950
C1108       C  0.84420157  0.42187472  0.22086536    -0.02070
C1109       C  0.86932536  0.38669965  0.21035521     0.02920
C1110       C  0.88838647  0.36341423  0.24309870    -0.04950
C1111       C  0.88261220  0.37725012  0.28629390    -0.02060
C1112       C  0.85049155  0.40655493  0.29656885     0.02920
C1113       C  0.83853775  0.45459961  0.18862419     0.37570
C1114       C  0.91125069  0.36428569  0.32014290     0.37560
C1115       C  0.84037128  0.41541349  0.34082322     0.35980
C1116       C  0.87542433  0.37509276  0.16605661     0.35980
N1117       N  0.83265937  0.42239477  0.37619782    -0.38840
N1118       N  0.88021596  0.36537900  0.13085225    -0.38840
N1119       N  0.93431751  0.35481231  0.34714229    -0.38280
N1120       N  0.83612415  0.48116862  0.16307237    -0.38290
C1121       C  0.37938203  0.27111531  0.15769697    -0.04950
C1122       C  0.37264943  0.29962502  0.12354975    -0.02070
C1123       C  0.35307345  0.28462398  0.08586815     0.02920
C1124       C  0.33157316  0.24406733  0.08507974    -0.04950
C1125       C  0.33600705  0.21683932  0.12035758    -0.02060
C1126       C  0.36483125  0.22790890  0.15245235     0.02920
C1127       C  0.38940912  0.34297433  0.12498117     0.37570
C1128       C  0.31545970  0.17496667  0.12174744     0.37560
C1129       C  0.38730639  0.19241975  0.17130560     0.35980
C1130       C  0.36005733  0.30918070  0.04724263     0.35980
N1131       N  0.40648763  0.16351779  0.18349721    -0.38840
N1132       N  0.36805314  0.32808113  0.01643496    -0.38840
N1133       N  0.29905437  0.14167760  0.12322213    -0.38280
N1134       N  0.40306249  0.37746538  0.12587835    -0.38290
C1135       C  0.39286234  0.15680102  0.28230316    -0.04950
C1136       C  0.40545848  0.11523473  0.26996385    -0.02070
C1137       C  0.37963259  0.09081155  0.24288725     0.02920
C1138       C  0.33766499  0.10380909  0.23360931    -0.04950
C1139       C  0.32345888  0.14405800  0.24835525    -0.02060
C1140       C  0.35123327  0.17079519  0.27215564     0.02920
C1141       C  0.44626510  0.09823284  0.28353638     0.37570
C1142       C  0.28091161  0.15846479  0.23801680     0.37560
C1143       C  0.33768747  0.21321998  0.28456758     0.35980
C1144       C  0.39696793  0.05288403  0.22268851     0.35980
N1145       N  0.32702790  0.24713536  0.29453057    -0.38840
N1146       N  0.41078442  0.02289985  0.20623085    -0.38840
N1147       N  0.24705740  0.17011906  0.22938584    -0.38280
N1148       N  0.47874254  0.08456344  0.29422608    -0.38290
C1149       C  0.64160973  0.11759847  0.21803769    -0.04950
C1150       C  0.59953487  0.11545060  0.20398288    -0.02070
C1151       C  0.56761570  0.13923047  0.22450475     0.02920
C1152       C  0.57786581  0.16845843  0.25779342    -0.04950
C1153       C  0.62109149  0.17387753  0.26878967    -0.02060
C1154       C  0.65297144  0.14934725  0.24807094     0.02920
C1155       C  0.58968211  0.08963186  0.16694179     0.37570
C1156       C  0.63291117  0.20608291  0.29970295     0.37560
C1157       C  0.69741525  0.16096859  0.25318433     0.35980
C1158       C  0.52426962  0.13459773  0.20925547     0.35980
N1159       N  0.73263249  0.17183399  0.25669333    -0.38840
N1160       N  0.49040089  0.13008086  0.19554118    -0.38840
N1161       N  0.64231393  0.23177267  0.32441383    -0.38280
N1162       N  0.58199473  0.06929811  0.13723812    -0.38290
C1163       C  0.55901841  0.27433537  0.14453112    -0.04950
C1164       C  0.54657259  0.26017805  0.10358462    -0.02070
C1165       C  0.57494321  0.23687965  0.07774948     0.02920
C1166       C  0.61763178  0.23047899  0.09034171    -0.04950
C1167       C  0.62985963  0.24261783  0.13187016    -0.02060
C1168       C  0.60063773  0.26434355  0.15894868     0.02920
C1169       C  0.50496810  0.27136094  0.08676063     0.37570
C1170       C  0.67329670  0.23536448  0.14563923     0.37560
C1171       C  0.61386561  0.27714713  0.20113400     0.35980
C1172       C  0.56075918  0.22107336  0.03673579     0.35980
N1173       N  0.62452130  0.28762400  0.23472403    -0.38840
N1174       N  0.54947617  0.20859475  0.00403605    -0.38840
N1175       N  0.70798808  0.22957563  0.15661224    -0.38280
N1176       N  0.47194128  0.28039840  0.07323478    -0.38290
C1177       C  0.83666302  0.76086175  0.59012002    -0.04950
C1178       C  0.87249936  0.73450780  0.59506943    -0.02070
C1179       C  0.90841273  0.75011847  0.61734195     0.02920
C1180       C  0.90459449  0.78596256  0.64522729    -0.04950
C1181       C  0.86719419  0.81049250  0.64260679    -0.02060
C1182       C  0.83765352  0.80168881  0.61018898     0.02920
C1183       C  0.87528983  0.69466651  0.57165261     0.37570
C1184       C  0.86106794  0.84786203  0.66920155     0.37560
C1185       C  0.81842336  0.83868731  0.59072782     0.35980
C1186       C  0.94993376  0.73317887  0.60583360     0.35980
N1187       N  0.80761269  0.87040704  0.57519012    -0.38840
N1188       N  0.98298442  0.72026189  0.59557797    -0.38840
N1189       N  0.85597718  0.87756110  0.69047606    -0.38280
N1190       N  0.87766604  0.66305511  0.55277131    -0.38290
C1191       C  0.70645286  0.86863914  0.59623595    -0.04950
C1192       C  0.71648930  0.91075254  0.58350832    -0.02070
C1193       C  0.73816325  0.93858947  0.61097098     0.02920
C1194       C  0.75280914  0.92427403  0.65108212    -0.04950
C1195       C  0.74151635  0.88232429  0.66452962    -0.02060
C1196       C  0.71838903  0.85477339  0.63731270     0.02920
C1197       C  0.70857020  0.92486953  0.54031347     0.37570
C1198       C  0.75151429  0.86840492  0.70741443     0.37560
C1199       C  0.70841644  0.81130071  0.65064311     0.35980
C1200       C  0.74040049  0.98332664  0.59889551     0.35980
N1201       N  0.70037972  0.77659158  0.66112412    -0.38840
N1202       N  0.73892853  0.01835545  0.58713143    -0.38840
N1203       N  0.75928393  0.85738764  0.74170012    -0.38280
N1204       N  0.70424648  0.93780433  0.50614183    -0.38290
C1205       C  0.74003480  0.93217505  0.35218632    -0.04950
C1206       C  0.71026281  0.94337623  0.38507972    -0.02070
C1207       C  0.68515302  0.91179097  0.40565135     0.02920
C1208       C  0.69395682  0.86850040  0.39981050    -0.04950
C1209       C  0.72116756  0.85679159  0.36599579    -0.02060
C1210       C  0.74470960  0.88814864  0.34262189     0.02920
C1211       C  0.70756638  0.98667315  0.40134894     0.37570
C1212       C  0.72184165  0.81242605  0.35364416     0.37560
C1213       C  0.77468724  0.87481656  0.31008695     0.35980
C1214       C  0.64974501  0.92342030  0.43318904     0.35980
N1215       N  0.79898845  0.86475343  0.28413972    -0.38840
N1216       N  0.62114992  0.93252901  0.45479979    -0.38840
N1217       N  0.71992136  0.77707948  0.34322601    -0.38280
N1218       N  0.70569336  0.02078007  0.41539582    -0.38290
C1219       C  0.90042032  0.79099898  0.35223857    -0.04950
C1220       C  0.90844553  0.78848827  0.39622142    -0.02070
C1221       C  0.87793709  0.76989420  0.42386284     0.02920
C1222       C  0.83962270  0.75244455  0.40759559    -0.04950
C1223       C  0.83373347  0.75124096  0.36342629    -0.02060
C1224       C  0.86242392  0.77295437  0.33595092     0.02920
C1225       C  0.94772620  0.80643152  0.41321225     0.37570
C1226       C  0.79942311  0.72515147  0.34695922     0.37560
C1227       C  0.85238770  0.77766054  0.29133364     0.35980
C1228       C  0.88695918  0.76870574  0.46891213     0.35980
N1229       N  0.84442676  0.78289097  0.25581681    -0.38840
N1230       N  0.89691908  0.76856969  0.50427053    -0.38840
N1231       N  0.77226343  0.70285005  0.33552855    -0.38280
N1232       N  0.97903549  0.82073908  0.42660197    -0.38290
C1233       C  0.72970678  0.17407430  0.40418041    -0.04950
C1234       C  0.77361349  0.16416013  0.39574498    -0.02070
C1235       C  0.78462188  0.13522612  0.36359459     0.02920
C1236       C  0.75240139  0.11185572  0.34361478    -0.04950
C1237       C  0.70921629  0.11557185  0.35820997    -0.02060
C1238       C  0.69776463  0.14784443  0.38690930     0.02920
C1239       C  0.80805600  0.18133348  0.42139682     0.37570
C1240       C  0.67606145  0.08596143  0.34447958     0.37560
C1241       C  0.65314730  0.15365766  0.39832141     0.35980
C1242       C  0.82890386  0.13071121  0.35034466     0.35980
N1243       N  0.61752440  0.15797438  0.40731882    -0.38840
N1244       N  0.86421316  0.12740404  0.33977297    -0.38840
N1245       N  0.64923289  0.06255934  0.33432340    -0.38280
N1246       N  0.83586093  0.19422859  0.44181484    -0.38290
C1247       C  0.77568274  0.11695780  0.64736289    -0.04950
C1248       C  0.75182878  0.15332897  0.65925103    -0.02070
C1249       C  0.73025415  0.17804298  0.62801358     0.02920
C1250       C  0.73112934  0.16557955  0.58460113    -0.04950
C1251       C  0.75690215  0.12985535  0.57317866    -0.02060
C1252       C  0.78145250  0.10844208  0.60392317     0.02920
C1253       C  0.74960501  0.16533530  0.70369154     0.37570
C1254       C  0.75681715  0.11296282  0.53013335     0.37560
C1255       C  0.81217814  0.07626903  0.59113478     0.35980
C1256       C  0.70744206  0.21611023  0.64084497     0.35980
N1257       N  0.83666267  0.05063587  0.58094492    -0.38840
N1258       N  0.68931427  0.24651881  0.65123860    -0.38840
N1259       N  0.75654300  0.09926408  0.49596004    -0.38280
N1260       N  0.74802105  0.17527124  0.73911308    -0.38290
C1261       C  0.82766488  0.28870688  0.60044176    -0.04950
C1262       C  0.81660150  0.29945041  0.64249296    -0.02070
C1263       C  0.84013296  0.28242855  0.67663913     0.02920
C1264       C  0.87550162  0.25537824  0.66873683    -0.04950
C1265       C  0.88565842  0.24363641  0.62672519    -0.02060
C1266       C  0.86227686  0.26054209  0.59282651     0.02920
C1267       C  0.78016522  0.32669830  0.65061089     0.37570
C1268       C  0.92111919  0.21511454  0.61786634     0.37560
C1269       C  0.87282717  0.24662731  0.54997534     0.35980
C1270       C  0.82753293  0.29204148  0.72009226     0.35980
N1271       N  0.88200617  0.23406288  0.51658827    -0.38840
N1272       N  0.81726133  0.29954163  0.75471679    -0.38840
N1273       N  0.94920960  0.19232570  0.61063523    -0.38280
N1274       N  0.75122562  0.34859364  0.65716931    -0.38290
C1275       C  0.84011198  0.29847532  0.41037755    -0.04950
C1276       C  0.82596767  0.28181890  0.37097183    -0.02070
C1277       C  0.85439426  0.25856649  0.34403529     0.02920
C1278       C  0.89696125  0.25043017  0.35683742    -0.04950
C1279       C  0.91050136  0.26706069  0.39664173    -0.02060
C1280       C  0.88333954  0.29292587  0.42141106     0.02920
C1281       C  0.78199015  0.28785933  0.35845835     0.37570
C1282       C  0.95275664  0.25740938  0.41284575     0.37560
C1283       C  0.90000448  0.31404479  0.45898965     0.35980
C1284       C  0.83987166  0.24361786  0.30301452     0.35980
N1285       N  0.91325520  0.33097575  0.48885138    -0.38840
N1286       N  0.82827222  0.23168178  0.27022662    -0.38840
N1287       N  0.98639721  0.24983319  0.42577806    -0.38280
N1288       N  0.74685127  0.29266377  0.34842964    -0.38290
C1289       C  0.08492393  0.78427547  0.34160715    -0.04950
C1290       C  0.09646608  0.74112405  0.35129043    -0.02070
C1291       C  0.12805597  0.73168900  0.38096436     0.02920
C1292       C  0.14088185  0.76323745  0.40965717    -0.04950
C1293       C  0.12671126  0.80625086  0.40322648    -0.02060
C1294       C  0.10060270  0.81688157  0.36812428     0.02920
C1295       C  0.07061690  0.70525097  0.33802329     0.37570
C1296       C  0.13877609  0.84021176  0.43216599     0.37560
C1297       C  0.08821251  0.86095588  0.36105664     0.35980
C1298       C  0.14466348  0.68835669  0.38344111     0.35980
N1299       N  0.07818638  0.89615108  0.35582128    -0.38840
N1300       N  0.15810709  0.65397105  0.38473163    -0.38840
N1301       N  0.14789952  0.86764368  0.45505043    -0.38280
N1302       N  0.04960202  0.67598813  0.33004629    -0.38290
C1303       C  0.25478482  0.87825975  0.58218214    -0.04950
C1304       C  0.22902341  0.91442909  0.57178991    -0.02070
C1305       C  0.20776998  0.93816127  0.60351207     0.02920
C1306       C  0.21160078  0.92761612  0.64668460    -0.04950
C1307       C  0.23394423  0.88991275  0.65758284    -0.02060
C1308       C  0.25537952  0.86538281  0.62569588     0.02920
C1309       C  0.22096161  0.92678964  0.52816037     0.37570
C1310       C  0.23436987  0.87598789  0.70160966     0.37560
C1311       C  0.27627560  0.82601308  0.63780565     0.35980
C1312       C  0.18013211  0.97313286  0.59124108     0.35980
N1313       N  0.29267816  0.79444991  0.64767370    -0.38840
N1314       N  0.15765221  0.00003366  0.58005446    -0.38840
N1315       N  0.23438480  0.86444962  0.73667613    -0.38280
N1316       N  0.21184362  0.93657588  0.49395537    -0.38290
C1317       C  0.14991355  0.76737178  0.60009804    -0.04950
C1318       C  0.13408128  0.80892665  0.60956415    -0.02070
C1319       C  0.10811131  0.81511491  0.64523945     0.02920
C1320       C  0.08904892  0.77929620  0.66493306    -0.04950
C1321       C  0.09833514  0.73752957  0.64929126    -0.02060
C1322       C  0.13236908  0.73156765  0.62114732     0.02920
C1323       C  0.13872524  0.84436683  0.57979111     0.37570
C1324       C  0.06964724  0.70141519  0.65647818     0.37560
C1325       C  0.14738110  0.68845537  0.61295080     0.35980
C1326       C  0.09978371  0.85838786  0.65967975     0.35980
N1327       N  0.15909156  0.65397585  0.60677271    -0.38840
N1328       N  0.09342318  0.89298743  0.67094478    -0.38840
N1329       N  0.04593677  0.67313458  0.66067360    -0.38280
N1330       N  0.14054853  0.87233845  0.55559918    -0.38290
C1331       C  0.26294619  0.86628468  0.39124364    -0.04950
C1332       C  0.23880136  0.85718799  0.35422761    -0.02070
C1333       C  0.21611732  0.88993803  0.33290967     0.02920
C1334       C  0.21462446  0.93167403  0.35021862    -0.04950
C1335       C  0.23772492  0.93993680  0.38800757    -0.02060
C1336       C  0.26508140  0.90887685  0.40542900     0.02920
C1337       C  0.23467742  0.81322728  0.34006826     0.37570
C1338       C  0.22991063  0.97892935  0.41168193     0.37560
C1339       C  0.29269573  0.92000441  0.44061932     0.35980
C1340       C  0.19335377  0.87997348  0.29414962     0.35980
N1341       N  0.31483221  0.92907770  0.46854844    -0.38840
N1342       N  0.17507984  0.87178204  0.26332114    -0.38840
N1343       N  0.22270369  0.00949838  0.43105837    -0.38280
N1344       N  0.23074547  0.77807147  0.32928155    -0.38290
loop_ 
_geom_bond_atom_site_label_1 
_geom_bond_atom_site_label_2 
_geom_bond_distance 
_geom_bond_site_symmetry_2 
_ccdc_geom_bond_type 
Fe1          O17   2.112       .  S
Fe1           O7   2.189       .  S
Fe1          O14   2.118       .  S
Fe1           O6   2.166       .  S
Fe1          O12   1.901       .  S
Fe2           O5   2.099       .  S
Fe2           O9   2.089       .  S
Fe2          O13   2.090       .  S
Fe2          O18   2.122       .  S
Fe2          O12   1.910       .  S
Fe3          O21   2.023       .  S
Fe3           O8   1.990       .  S
Fe3          O15   1.999       .  S
Fe3           O4   2.018       .  S
Fe3          O12   1.916       .  S
O4           C11   1.241       .  A
O5           C19   1.269       .  A
O6           C11   1.271       .  A
O7           C10   1.302       .  A
O8           C20   1.261       .  A
O9           C22   1.277       .  A
C10          O15   1.262       .  A
C10        C1331   1.485       .  S
C11        C1303   1.529       .  S
O13          C16   1.279       .  A
O14          C16   1.284       .  A
C16         C303   1.512       .  S
O17          C22   1.288       .  A
O18          C20   1.289       .  A
C19          O21   1.244       .  A
C19        C1292   1.490       .  S
C20        C1317   1.468       .  S
C22         C312   1.510       .  S
Fe23         O39   2.106       .  S
Fe23         O29   2.162       .  S
Fe23         O36   2.117       .  S
Fe23         O28   2.140       .  S
Fe23         O34   1.916       .  S
Fe24         O27   2.147       .  S
Fe24         O31   2.113       .  S
Fe24         O35   2.098       .  S
Fe24         O40   2.178       .  S
Fe24         O34   1.899       .  S
Fe25         O43   2.027       .  S
Fe25         O30   1.971       .  S
Fe25         O37   1.993       .  S
Fe25         O26   2.032       .  S
Fe25         O34   1.902       .  S
O26          C33   1.248       .  A
O27          C41   1.268       .  A
O28          C33   1.273       .  A
O29          C32   1.295       .  A
O30          C42   1.262       .  A
O31          C44   1.286       .  A
C32          O37   1.254       .  A
C32        C1233   1.485       .  S
C33        C1250   1.510       .  S
O35          C38   1.281       .  A
O36          C38   1.285       .  A
C38         C285   1.514       .  S
O39          C44   1.282       .  A
O40          C42   1.301       .  A
C41          O43   1.244       .  A
C41        C1275   1.501       .  S
C42        C1261   1.467       .  S
C44         C330   1.517       .  S
Fe45         O61   2.123       .  S
Fe45         O51   2.145       .  S
Fe45         O58   2.110       .  S
Fe45         O50   2.127       .  S
Fe45         O56   1.926       .  S
Fe46         O49   2.110       .  S
Fe46         O53   2.078       .  S
Fe46         O57   2.097       .  S
Fe46         O62   2.137       .  S
Fe46         O56   1.940       .  S
Fe47         O65   2.040       .  S
Fe47         O52   1.979       .  S
Fe47         O59   2.013       .  S
Fe47         O48   2.027       .  S
Fe47         O56   1.924       .  S
O48          C55   1.252       .  A
O49          C63   1.268       .  A
O50          C55   1.277       .  A
O51          C54   1.287       .  A
O52          C64   1.251       .  A
O53          C66   1.276       .  A
C54          O59   1.266       .  A
C54        C1222   1.475       .  S
C55        C1177   1.494       .  S
O57          C60   1.279       .  A
O58          C60   1.279       .  A
C60         C294   1.514       .  S
O61          C66   1.288       .  A
O62          C64   1.283       .  A
C63          O65   1.256       .  A
C63        C1208   1.485       .  S
C64        C1191   1.467       .  S
C66         C321   1.507       .  S
Fe67         O83   2.139       .  S
Fe67         O73   2.129       .  S
Fe67         O80   2.090       .  S
Fe67         O72   2.192       .  S
Fe67         O78   1.910       .  S
Fe68         O71   2.213       .  S
Fe68         O75   2.075       .  S
Fe68         O79   2.147       .  S
Fe68         O84   2.121       .  S
Fe68         O78   1.903       .  S
Fe69         O87   1.976       .  S
Fe69         O74   2.025       .  S
Fe69         O81   2.035       .  S
Fe69         O70   2.006       .  S
Fe69         O78   1.896       .  S
O70          C77   1.256       .  A
O71          C85   1.308       .  A
O72          C77   1.300       .  A
O73          C76   1.271       .  A
O74          C86   1.243       .  A
O75          C88   1.275       .  A
C76          O81   1.250       .  A
C76        C1163   1.498       .  S
C77        C1121   1.511       .  S
O79          C82   1.293       .  A
O80          C82   1.279       .  A
C82         C274   1.523       .  S
O83          C88   1.290       .  A
O84          C86   1.263       .  A
C85          O87   1.260       .  A
C85        C1152   1.487       .  S
C86        C1135   1.487       .  S
C88         C332   1.515       .  S
Fe89        O105   2.066       .  S
Fe89         O95   2.143       .  S
Fe89        O102   2.107       .  S
Fe89         O94   2.091       .  S
Fe89        O100   1.906       .  S
Fe90         O93   2.102       .  S
Fe90         O97   2.093       .  S
Fe90        O101   2.075       .  S
Fe90        O106   2.162       .  S
Fe90        O100   1.905       .  S
Fe91        O109   2.033       .  S
Fe91         O96   1.973       .  S
Fe91        O103   1.961       .  S
Fe91         O92   2.036       .  S
Fe91        O100   1.892       .  S
O92          C99   1.249       .  A
O93         C107   1.263       .  A
O94          C99   1.270       .  A
O95          C98   1.289       .  A
O96         C108   1.255       .  A
O97         C110   1.279       .  A
C98         O103   1.244       .  A
C98        C1082   1.472       .  S
C99        C1068   1.496       .  S
O101        C104   1.279       .  A
O102        C104   1.283       .  A
C104        C328   1.499       .  S
O105        C110   1.276       .  A
O106        C108   1.295       .  A
C107        O109   1.252       .  A
C107       C1093   1.473       .  S
C108       C1107   1.478       .  S
C110        C319   1.492       .  S
Fe111       O127   2.124       .  S
Fe111       O117   2.105       .  S
Fe111       O124   2.098       .  S
Fe111       O116   2.175       .  S
Fe111       O122   1.916       .  S
Fe112       O115   2.146       .  S
Fe112       O119   2.048       .  S
Fe112       O123   2.098       .  S
Fe112       O128   2.096       .  S
Fe112       O122   1.919       .  S
Fe113       O131   2.008       .  S
Fe113       O118   2.035       .  S
Fe113       O125   2.031       .  S
Fe113       O114   2.008       .  S
Fe113       O122   1.915       .  S
O114        C121   1.264       .  A
O115        C129   1.293       .  A
O116        C121   1.298       .  A
O117        C120   1.268       .  A
O118        C130   1.250       .  A
O119        C132   1.273       .  A
C120        O125   1.251       .  A
C120       C1009   1.486       .  S
C121       C1023   1.511       .  S
O123        C126   1.278       .  A
O124        C126   1.282       .  A
C126        C323   1.507       .  S
O127        C132   1.284       .  A
O128        C130   1.263       .  A
C129        O131   1.267       .  A
C129       C1051   1.473       .  S
C130       C1037   1.488       .  S
C132        C310   1.502       .  S
Fe133       O149   2.103       .  S
Fe133       O139   2.174       .  S
Fe133       O146   2.112       .  S
Fe133       O138   2.158       .  S
Fe133       O144   1.908       .  S
Fe134       O137   2.125       .  S
Fe134       O141   2.114       .  S
Fe134       O145   2.099       .  S
Fe134       O150   2.154       .  S
Fe134       O144   1.906       .  S
Fe135       O153   2.020       .  S
Fe135       O140   1.994       .  S
Fe135       O147   2.009       .  S
Fe135       O136   2.024       .  S
Fe135       O144   1.906       .  S
O136        C143   1.244       .  A
O137        C151   1.270       .  A
O138        C143   1.272       .  A
O139        C142   1.298       .  A
O140        C152   1.264       .  A
O141        C154   1.285       .  A
C142        O147   1.260       .  A
C142        C998   1.481       .  S
C143        C956   1.525       .  S
O145        C148   1.279       .  A
O146        C148   1.285       .  A
C148        C276   1.514       .  S
O149        C154   1.282       .  A
O150        C152   1.298       .  A
C151        O153   1.241       .  A
C151        C984   1.486       .  S
C152        C970   1.491       .  S
C154        C314   1.514       .  S
Fe155       O171   2.093       .  S
Fe155       O161   2.134       .  S
Fe155       O168   2.096       .  S
Fe155       O160   2.109       .  S
Fe155       O166   1.911       .  S
Fe156       O159   2.137       .  S
Fe156       O163   2.105       .  S
Fe156       O167   2.099       .  S
Fe156       O172   2.174       .  S
Fe156       O166   1.910       .  S
Fe157       O175   2.027       .  S
Fe157       O162   1.973       .  S
Fe157       O169   1.980       .  S
Fe157       O158   2.042       .  S
Fe157       O166   1.907       .  S
O158        C165   1.251       .  A
O159        C173   1.267       .  A
O160        C165   1.272       .  A
O161        C164   1.289       .  A
O162        C174   1.257       .  A
O163        C176   1.282       .  A
C164        O169   1.255       .  A
C164        C925   1.466       .  S
C165        C942   1.496       .  S
O167        C170   1.282       .  A
O168        C170   1.280       .  A
C170        C269   1.507       .  S
O171        C176   1.280       .  A
O172        C174   1.296       .  A
C173        O175   1.248       .  A
C173        C911   1.494       .  S
C174        C900   1.466       .  S
C176        C301   1.507       .  S
Fe177       O193   2.084       .  S
Fe177       O183   2.149       .  S
Fe177       O190   2.114       .  S
Fe177       O182   2.112       .  S
Fe177       O188   1.910       .  S
Fe178       O181   2.157       .  S
Fe178       O185   2.111       .  S
Fe178       O189   2.106       .  S
Fe178       O194   2.183       .  S
Fe178       O188   1.904       .  S
Fe179       O197   2.029       .  S
Fe179       O184   1.962       .  S
Fe179       O191   1.988       .  S
Fe179       O180   2.052       .  S
Fe179       O188   1.900       .  S
O180        C187   1.254       .  A
O181        C195   1.267       .  A
O182        C187   1.272       .  A
O183        C186   1.292       .  A
O184        C196   1.259       .  A
O185        C198   1.284       .  A
C186        O191   1.250       .  A
C186        C883   1.474       .  S
C187        C855   1.499       .  S
O189        C192   1.283       .  A
O190        C192   1.285       .  A
C192        C296   1.516       .  S
O193        C198   1.278       .  A
O194        C196   1.301       .  A
C195        O197   1.243       .  A
C195        C872   1.506       .  S
C196        C841   1.463       .  S
C198        C305   1.507       .  S
Fe199       O215   2.098       .  S
Fe199       O205   2.178       .  S
Fe199       O212   2.097       .  S
Fe199       O204   2.117       .  S
Fe199       O210   1.917       .  S
Fe200       O203   2.126       .  S
Fe200       O207   2.107       .  S
Fe200       O211   2.125       .  S
Fe200       O216   2.130       .  S
Fe200       O210   1.921       .  S
Fe201       O219   2.028       .  S
Fe201       O206   1.972       .  S
Fe201       O213   1.991       .  S
Fe201       O202   2.033       .  S
Fe201       O210   1.913       .  S
O202        C209   1.253       .  A
O203        C217   1.279       .  A
O204        C209   1.265       .  A
O205        C208   1.294       .  A
O206        C218   1.252       .  A
O207        C220   1.281       .  A
C208        O213   1.255       .  A
C208        C827   1.485       .  S
C209        C785   1.491       .  S
O211        C214   1.286       .  A
O212        C214   1.280       .  A
C214        C292   1.519       .  S
O215        C220   1.283       .  A
O216        C218   1.284       .  A
C217        O219   1.250       .  A
C217        C813   1.492       .  S
C218        C799   1.471       .  S
C220        C287   1.511       .  S
Fe221       O237   2.093       .  S
Fe221       O227   2.149       .  S
Fe221       O234   2.109       .  S
Fe221       O226   2.118       .  S
Fe221       O232   1.919       .  S
Fe222       O225   2.113       .  S
Fe222       O229   2.092       .  S
Fe222       O233   2.080       .  S
Fe222       O238   2.158       .  S
Fe222       O232   1.911       .  S
Fe223       O241   2.029       .  S
Fe223       O228   1.973       .  S
Fe223       O235   1.978       .  S
Fe223       O224   2.032       .  S
Fe223       O232   1.905       .  S
O224        C231   1.253       .  A
O225        C239   1.263       .  A
O226        C231   1.273       .  A
O227        C230   1.289       .  A
O228        C240   1.262       .  A
O229        C242   1.280       .  A
C230        O235   1.253       .  A
C230        C757   1.474       .  S
C231        C732   1.493       .  S
O233        C236   1.277       .  A
O234        C236   1.284       .  A
C236        C265   1.504       .  S
O237        C242   1.279       .  A
O238        C240   1.295       .  A
C239        O241   1.249       .  A
C239        C743   1.481       .  S
C240        C774   1.459       .  S
C242        C283   1.503       .  S
Fe243       O259   2.077       .  S
Fe243       O249   2.144       .  S
Fe243       O256   2.079       .  S
Fe243       O248   2.106       .  S
Fe243       O254   1.913       .  S
Fe244       O247   2.118       .  S
Fe244       O251   2.100       .  S
Fe244       O255   2.101       .  S
Fe244       O260   2.141       .  S
Fe244       O254   1.914       .  S
Fe245       O263   2.045       .  S
Fe245       O250   1.974       .  S
Fe245       O257   1.979       .  S
Fe245       O246   2.023       .  S
Fe245       O254   1.901       .  S
O246        C253   1.248       .  A
O247        C261   1.276       .  A
O248        C253   1.263       .  A
O249        C252   1.290       .  A
O250        C262   1.247       .  A
O251        C264   1.282       .  A
C252        O257   1.263       .  A
C252        C718   1.460       .  S
C253        C676   1.470       .  S
O255        C258   1.282       .  A
O256        C258   1.275       .  A
C258        C278   1.500       .  S
O259        C264   1.280       .  A
O260        C262   1.286       .  A
C261        O263   1.253       .  A
C261        C704   1.502       .  S
C262        C687   1.472       .  S
C264        C267   1.497       .  S
C265        C266   1.408       .  A
C265        C270   1.417       .  A
C266        C267   1.409       .  A
C266        H271   1.082       .  S
C267        C268   1.412       .  A
C268        C269   1.412       .  A
C268        H272   1.083       .  S
C269        C270   1.418       .  A
C270        H273   1.084       .  S
C274        C275   1.427       .  A
C274        C279   1.413       .  A
C275        C276   1.424       .  A
C275        H280   1.082       .  S
C276        C277   1.410       .  A
C277        C278   1.407       .  A
C277        H281   1.083       .  S
C278        C279   1.419       .  A
C279        H282   1.083       .  S
C283        C284   1.415       .  A
C283        C288   1.412       .  A
C284        C285   1.417       .  A
C284        H289   1.084       .  S
C285        C286   1.422       .  A
C286        C287   1.419       .  A
C286        H290   1.082       .  S
C287        C288   1.408       .  A
C288        H291   1.083       .  S
C292        C293   1.419       .  A
C292        C297   1.421       .  A
C293        C294   1.423       .  A
C293        H298   1.082       .  S
C294        C295   1.417       .  A
C295        C296   1.414       .  A
C295        H299   1.083       .  S
C296        C297   1.416       .  A
C297        H300   1.083       .  S
C301        C302   1.416       .  A
C301        C306   1.413       .  A
C302        C303   1.417       .  A
C302        H307   1.083       .  S
C303        C304   1.415       .  A
C304        C305   1.418       .  A
C304        H308   1.081       .  S
C305        C306   1.413       .  A
C306        H309   1.084       .  S
C310        C311   1.412       .  A
C310        C315   1.413       .  A
C311        C312   1.401       .  A
C311        H316   1.083       .  S
C312        C313   1.420       .  A
C313        C314   1.424       .  A
C313        H317   1.082       .  S
C314        C315   1.420       .  A
C315        H318   1.082       .  S
C319        C320   1.413       .  A
C319        C324   1.410       .  A
C320        C321   1.409       .  A
C320        H325   1.083       .  S
C321        C322   1.423       .  A
C322        C323   1.416       .  A
C322        H326   1.082       .  S
C323        C324   1.405       .  A
C324        H327   1.085       .  S
C328        C329   1.412       .  A
C328        C333   1.413       .  A
C329        C330   1.410       .  A
C329        H334   1.084       .  S
C330        C331   1.421       .  A
C331        C332   1.427       .  A
C331        H335   1.081       .  S
C332        C333   1.412       .  A
C333        H336   1.084       .  S
Fe337       O353   2.086       .  S
Fe337       O343   2.159       .  S
Fe337       O350   2.128   1_545  S
Fe337       O342   2.106   1_545  S
Fe337       O348   1.913       .  S
Fe338       O341   2.122       .  S
Fe338       O345   2.120       .  S
Fe338       O349   2.087   1_545  S
Fe338       O354   2.188   1_545  S
Fe338       O348   1.908       .  S
Fe339       O357   2.033       .  S
Fe339       O344   1.962   1_545  S
Fe339       O351   1.990       .  S
Fe339       O340   2.052       .  S
Fe339       O348   1.902       .  S
O340        C347   1.255   1_545  A
O341        C355   1.263       .  A
O342        C347   1.274       .  A
O343        C346   1.292       .  A
O344        C356   1.253       .  A
O345        C358   1.288       .  A
C346        O351   1.250       .  A
C346        C760   1.487       .  S
C347        C858   1.494       .  S
O349        C352   1.277       .  A
O350        C352   1.287       .  A
C352        C666   1.516       .  S
O353        C358   1.278       .  A
O354        C356   1.301       .  A
C355        O357   1.248       .  A
C355       C1247   1.489       .  S
C356       C1194   1.471       .  S
C358        C363   1.511       .  S
C359        C389   1.502       .  S
C359        C360   1.416       .  A
C359        C364   1.412       .  A
C360        C361   1.415       .  A
C360        H365   1.084       .  S
C361        C632   1.515       .  S
C361        C362   1.422       .  A
C362        C363   1.420       .  A
C362        H366   1.082       .  S
C363        C364   1.408       .  A
C364        H367   1.083       .  S
Fe368       O384   2.085       .  S
Fe368       O374   2.137       .  S
Fe368       O381   2.094   1_655  S
Fe368       O373   2.124   1_655  S
Fe368       O379   1.902       .  S
Fe369       O372   2.119       .  S
Fe369       O376   2.098       .  S
Fe369       O380   2.085   1_655  S
Fe369       O385   2.150   1_655  S
Fe369       O379   1.914       .  S
Fe370       O388   2.019       .  S
Fe370       O375   1.996   1_655  S
Fe370       O382   2.005       .  S
Fe370       O371   2.018       .  S
Fe370       O379   1.913       .  S
O371        C378   1.243   1_655  A
O372        C386   1.269       .  A
O373        C378   1.272       .  A
O374        C377   1.293       .  A
O375        C387   1.258       .  A
O376        C389   1.280       .  A
C377        O382   1.263       .  A
C377       C1264   1.471       .  S
C378        C701   1.496       .  S
O380        C383   1.279       .  A
O381        C383   1.279       .  A
C383        C412   1.500       .  S
O384        C389   1.280       .  A
O385        C387   1.293       .  A
C386        O388   1.242       .  A
C386        C816   1.498       .  S
C387        C897   1.467       .  S
Fe390       O406   2.097       .  S
Fe390       O396   2.184       .  S
Fe390       O403   2.118   1_545  S
Fe390       O395   2.134   1_545  S
Fe390       O401   1.900       .  S
Fe391       O394   2.104       .  S
Fe391       O398   2.096       .  S
Fe391       O402   2.055   1_545  S
Fe391       O407   2.166   1_545  S
Fe391       O401   1.907       .  S
Fe392       O410   2.046       .  S
Fe392       O397   1.967   1_545  S
Fe392       O404   1.972       .  S
Fe392       O393   2.053   1_545  S
Fe392       O401   1.876       .  S
O393        C400   1.254       .  A
O394        C408   1.264       .  A
O395        C400   1.271       .  A
O396        C399   1.298       .  A
O397        C409   1.245       .  A
O398        C411   1.282       .  A
C399        O404   1.245       .  A
C399        C715   1.489       .  S
C400       C1306   1.498       .  S
O402        C405   1.274       .  A
O403        C405   1.287       .  A
C405        C443   1.496       .  S
O406        C411   1.282       .  A
O407        C409   1.294       .  A
C408        O410   1.253       .  A
C408        C729   1.484       .  S
C409        C886   1.474       .  S
C411        C416   1.503       .  S
C412        C413   1.412       .  A
C412        C417   1.416       .  A
C413        C414   1.409       .  A
C413        H418   1.082       .  S
C414        C551   1.499       .  S
C414        C415   1.411       .  A
C415        C416   1.412       .  A
C415        H419   1.083       .  S
C416        C417   1.413       .  A
C417        H420   1.084       .  S
Fe421       O437   2.081   1_655  S
Fe421       O427   2.128   1_655  S
Fe421       O434   2.087       .  S
Fe421       O426   2.117       .  S
Fe421       O432   1.906       .  S
Fe422       O425   2.163   1_655  S
Fe422       O429   2.100   1_655  S
Fe422       O433   2.107       .  S
Fe422       O438   2.160       .  S
Fe422       O432   1.906       .  S
Fe423       O441   2.021       .  S
Fe423       O428   1.996       .  S
Fe423       O435   1.988   1_655  S
Fe423       O424   2.028       .  S
Fe423       O432   1.894       .  S
O424        C431   1.244       .  A
O425        C439   1.273       .  A
O426        C431   1.270       .  A
O427        C430   1.291       .  A
O428        C440   1.263       .  A
O429        C442   1.280       .  A
C430        O435   1.259       .  A
C430       C1320   1.470       .  S
C431       C1180   1.505       .  S
O433        C436   1.286       .  A
O434        C436   1.278       .  A
C436        C664   1.504       .  S
O437        C442   1.278       .  A
O438        C440   1.296       .  A
C439        O441   1.240   1_455  A
C439        C914   1.512       .  S
C440        C802   1.481       .  S
C442        C445   1.501       .  S
C443        C444   1.406       .  A
C443        C448   1.415       .  A
C444        C445   1.411       .  A
C444        H449   1.084       .  S
C445        C446   1.415       .  A
C446        C447   1.418       .  A
C446        H450   1.081       .  S
C447        C467   1.506       .  S
C447        C448   1.408       .  A
C448        H451   1.084       .  S
Fe452       O468   2.100       .  S
Fe452       O458   2.204       .  S
Fe452       O465   2.124   1_554  S
Fe452       O457   2.147   1_554  S
Fe452       O463   1.900       .  S
Fe453       O456   2.097       .  S
Fe453       O460   2.101       .  S
Fe453       O464   2.072   1_554  S
Fe453       O469   2.139   1_554  S
Fe453       O463   1.913       .  S
Fe454       O472   2.043   1_556  S
Fe454       O459   1.991       .  S
Fe454       O466   1.983   1_556  S
Fe454       O455   2.033       .  S
Fe454       O463   1.901   1_556  S
O455        C462   1.246       .  A
O456        C470   1.270       .  A
O457        C462   1.266       .  A
O458        C461   1.305       .  A
O459        C471   1.253       .  A
O460        C473   1.281       .  A
C461        O466   1.256       .  A
C461       C1012   1.485       .  S
C462        C869   1.504       .  S
O464        C467   1.275       .  A
O465        C467   1.288       .  A
O468        C473   1.282       .  A
O469        C471   1.289       .  A
C470        O472   1.251       .  A
C470        C981   1.489       .  S
C471        C928   1.478       .  S
C473        C498   1.508       .  S
Fe474       O490   2.125       .  S
Fe474       O480   2.086       .  S
Fe474       O487   2.057   1_655  S
Fe474       O479   2.186   1_655  S
Fe474       O485   1.914       .  S
Fe475       O478   2.197       .  S
Fe475       O482   2.080       .  S
Fe475       O486   2.134   1_655  S
Fe475       O491   2.119   1_655  S
Fe475       O485   1.909       .  S
Fe476       O494   1.979       .  S
Fe476       O481   2.026   1_655  S
Fe476       O488   2.048       .  S
Fe476       O477   2.002   1_655  S
Fe476       O485   1.896       .  S
O477        C484   1.253       .  A
O478        C492   1.304       .  A
O479        C484   1.296       .  A
O480        C483   1.264       .  A
O481        C493   1.245       .  A
O482        C495   1.277       .  A
C483        O488   1.256       .  A
C483       C1219   1.476       .  S
C484       C1289   1.504       .  S
O486        C489   1.289       .  A
O487        C489   1.273       .  A
C489        C496   1.506       .  S
O490        C495   1.288       .  A
O491        C493   1.263       .  A
C492        O494   1.262       .  A
C492       C1096   1.481       .  S
C493        C995   1.492       .  S
C495        C529   1.509       .  S
C496        C497   1.411       .  A
C496        C501   1.419       .  A
C497        C498   1.416       .  A
C497        H502   1.084       .  S
C498        C499   1.416       .  A
C499        C500   1.417       .  A
C499        H503   1.082       .  S
C500        C579   1.512       .  S
C500        C501   1.410       .  A
C501        H504   1.083       .  S
Fe505       O521   2.122   1_556  S
Fe505       O511   2.159   1_556  S
Fe505       O518   2.106       .  S
Fe505       O510   2.160       .  S
Fe505       O516   1.904       .  S
Fe506       O509   2.092   1_556  S
Fe506       O513   2.099   1_556  S
Fe506       O517   2.055       .  S
Fe506       O522   2.136       .  S
Fe506       O516   1.909       .  S
Fe507       O525   2.029   1_556  S
Fe507       O512   1.990       .  S
Fe507       O519   1.985   1_556  S
Fe507       O508   2.033       .  S
Fe507       O516   1.913       .  S
O508        C515   1.241       .  A
O509        C523   1.265       .  A
O510        C515   1.273       .  A
O511        C514   1.298       .  A
O512        C524   1.260       .  A
O513        C526   1.282       .  A
C514        O519   1.262       .  A
C514       C1079   1.479       .  S
C515        C788   1.517       .  S
O517        C520   1.270       .  A
O518        C520   1.282       .  A
C520        C668   1.495       .  S
O521        C526   1.286       .  A
O522        C524   1.293       .  A
C523        O525   1.248       .  A
C523       C1026   1.502       .  S
C524        C844   1.455       .  S
C526        C531   1.516       .  S
C527        C648   1.507       .  S
C527        C528   1.413       .  A
C527        C532   1.415       .  A
C528        C529   1.412       .  A
C528        H533   1.084       .  S
C529        C530   1.422       .  A
C530        C531   1.417       .  A
C530        H534   1.081       .  S
C531        C532   1.417       .  A
C532        H535   1.083       .  S
Fe536       O552   2.101   1_556  S
Fe536       O542   2.142   1_556  S
Fe536       O549   2.101       .  S
Fe536       O541   2.126       .  S
Fe536       O547   1.904       .  S
Fe537       O540   2.100   1_556  S
Fe537       O544   2.096   1_556  S
Fe537       O548   2.075       .  S
Fe537       O553   2.147       .  S
Fe537       O547   1.921       .  S
Fe538       O556   2.024   1_556  S
Fe538       O543   1.995       .  S
Fe538       O550   1.992   1_556  S
Fe538       O539   2.024       .  S
Fe538       O547   1.913       .  S
O539        C546   1.244       .  A
O540        C554   1.268       .  A
O541        C546   1.271       .  A
O542        C545   1.294       .  A
O543        C555   1.257       .  A
O544        C557   1.280       .  A
C545        O550   1.266       .  A
C545        C967   1.469       .  S
C546        C939   1.494       .  S
O548        C551   1.277       .  A
O549        C551   1.281       .  A
O552        C557   1.281       .  A
O553        C555   1.289       .  A
C554        O556   1.246       .  A
C554       C1124   1.501       .  S
C555        C771   1.463       .  S
C557        C604   1.507       .  S
Fe558       O574   2.130   1_545  S
Fe558       O564   2.119   1_545  S
Fe558       O571   2.075       .  S
Fe558       O563   2.202       .  S
Fe558       O569   1.916       .  S
Fe559       O562   2.190   1_545  S
Fe559       O566   2.079   1_545  S
Fe559       O570   2.129       .  S
Fe559       O575   2.125       .  S
Fe559       O569   1.899       .  S
Fe560       O578   1.971   1_545  S
Fe560       O565   2.022       .  S
Fe560       O572   2.042       .  S
Fe560       O561   1.987       .  S
Fe560       O569   1.899       .  S
O561        C568   1.250       .  A
O562        C576   1.303       .  A
O563        C568   1.301       .  A
O564        C567   1.265       .  A
O565        C577   1.244       .  A
O566        C579   1.278       .  A
C567        O572   1.248   1_565  A
C567       C1334   1.503       .  S
C568        C673   1.478       .  S
O570        C573   1.288       .  A
O571        C573   1.277       .  A
C573        C606   1.510       .  S
O574        C579   1.289       .  A
O575        C577   1.265       .  A
C576        O578   1.260       .  A
C576       C1054   1.470       .  S
C577       C1138   1.483       .  S
Fe580       O596   2.101   1_655  S
Fe580       O586   2.166   1_655  S
Fe580       O593   2.113       .  S
Fe580       O585   2.154       .  S
Fe580       O591   1.900       .  S
Fe581       O584   2.137   1_655  S
Fe581       O588   2.109   1_655  S
Fe581       O592   2.102       .  S
Fe581       O597   2.168       .  S
Fe581       O591   1.899       .  S
Fe582       O600   2.031   1_655  S
Fe582       O587   1.973       .  S
Fe582       O594   1.977   1_655  S
Fe582       O583   2.033       .  S
Fe582       O591   1.886       .  S
O583        C590   1.246       .  A
O584        C598   1.269       .  A
O585        C590   1.274       .  A
O586        C589   1.296       .  A
O587        C599   1.251       .  A
O588        C601   1.284       .  A
C589        O594   1.248       .  A
C589        C690   1.478       .  S
C590       C1278   1.511       .  S
O592        C595   1.282       .  A
O593        C595   1.286       .  A
C595        C657   1.515       .  S
O596        C601   1.283       .  A
O597        C599   1.299       .  A
C598        O600   1.248       .  A
C598        C953   1.495       .  S
C599       C1110   1.478       .  S
C601        C602   1.512       .  S
C602        C603   1.416       .  A
C602        C607   1.415       .  A
C603        C604   1.417       .  A
C603        H608   1.084       .  S
C604        C605   1.417       .  A
C605        C606   1.411       .  A
C605        H609   1.082       .  S
C606        C607   1.418       .  A
C607        H610   1.083       .  S
Fe611       O627   2.127   1_554  S
Fe611       O617   2.123   1_554  S
Fe611       O624   2.094       .  S
Fe611       O616   2.180       .  S
Fe611       O622   1.918       .  S
Fe612       O615   2.204   1_554  S
Fe612       O619   2.088   1_554  S
Fe612       O623   2.143       .  S
Fe612       O628   2.121       .  S
Fe612       O622   1.907       .  S
Fe613       O631   1.977   1_554  S
Fe613       O618   2.032       .  S
Fe613       O625   2.048   1_554  S
Fe613       O614   2.000       .  S
Fe613       O622   1.903       .  S
O614        C621   1.252       .  A
O615        C629   1.306       .  A
O616        C621   1.295       .  A
O617        C620   1.272       .  A
O618        C630   1.247       .  A
O619        C632   1.278       .  A
C620        O625   1.253       .  A
C620        C830   1.501       .  S
C621       C1065   1.506       .  S
O623        C626   1.291       .  A
O624        C626   1.282       .  A
C626        C659   1.524       .  S
O627        C632   1.286       .  A
O628        C630   1.265       .  A
C629        O631   1.260       .  A
C629        C746   1.485       .  S
C630       C1166   1.490       .  S
Fe633       O649   2.103       .  S
Fe633       O639   2.153       .  S
Fe633       O646   2.106   1_545  S
Fe633       O638   2.135   1_545  S
Fe633       O644   1.925       .  S
Fe634       O637   2.113       .  S
Fe634       O641   2.104       .  S
Fe634       O645   2.092   1_545  S
Fe634       O650   2.172   1_545  S
Fe634       O644   1.907       .  S
Fe635       O653   2.025       .  S
Fe635       O640   1.985   1_545  S
Fe635       O647   1.984       .  S
Fe635       O636   2.040       .  S
Fe635       O644   1.906       .  S
O636        C643   1.250   1_545  A
O637        C651   1.262       .  A
O638        C643   1.277       .  A
O639        C642   1.286       .  A
O640        C652   1.263       .  A
O641        C654   1.282       .  A
C642        O647   1.245       .  A
C642       C1236   1.475       .  S
C643       C1205   1.514       .  S
O645        C648   1.280       .  A
O646        C648   1.282       .  A
O649        C654   1.284       .  A
O650        C652   1.300       .  A
C651        O653   1.249       .  A
C651       C1149   1.481       .  S
C652       C1040   1.470       .  S
C654        C655   1.512       .  S
C655        C656   1.413       .  A
C655        C660   1.423       .  A
C656        C657   1.412       .  A
C656        H661   1.084       .  S
C657        C658   1.419       .  A
C658        C659   1.423       .  A
C658        H662   1.082       .  S
C659        C660   1.420       .  A
C660        H663   1.083       .  S
C664        C665   1.422       .  A
C664        C669   1.406       .  A
C665        C666   1.421       .  A
C665        H670   1.082       .  S
C666        C667   1.411       .  A
C667        C668   1.417       .  A
C667        H671   1.083       .  S
C668        C669   1.405       .  A
C669        H672   1.084       .  S
C673        C674   1.410       .  A
C673        C678   1.429       .  A
C674        C675   1.417       .  A
C674        C679   1.450       .  S
C675        C676   1.416       .  A
C675        C682   1.448       .  S
C676        C677   1.400       .  A
C677        C678   1.398       .  A
C677        C680   1.455       .  S
C678        C681   1.451       .  S
C679        N686   1.157       .  T
C680        N685   1.157       .  T
C681        N683   1.157       .  T
C682        N684   1.158       .  T
C687        C688   1.431       .  A
C687        C692   1.397       .  A
C688        C689   1.399       .  A
C688        C693   1.450       .  S
C689        C690   1.398       .  A
C689        C696   1.453       .  S
C690        C691   1.436       .  A
C691        C692   1.399       .  A
C691        C694   1.455       .  S
C692        C695   1.454       .  S
C693        N700   1.155       .  T
C694        N699   1.157       .  T
C695        N697   1.158       .  T
C696        N698   1.157       .  T
C701        C702   1.431       .  A
C701        C706   1.399       .  A
C702        C703   1.415       .  A
C702        C707   1.448       .  S
C703        C704   1.406       .  A
C703        C710   1.453       .  S
C704        C705   1.429       .  A
C705        C706   1.409       .  A
C705        C708   1.442       .  S
C706        C709   1.453       .  S
C707        N714   1.157       .  T
C708        N713   1.154       .  T
C709        N711   1.157       .  T
C710        N712   1.158       .  T
C715        C716   1.405       .  A
C715        C720   1.443       .  A
C716        C717   1.399       .  A
C716        C721   1.446       .  S
C717        C718   1.410       .  A
C717        C724   1.446       .  S
C718        C719   1.388       .  A
C719        C720   1.399       .  A
C719        C722   1.450       .  S
C720        C723   1.451       .  S
C721        N728   1.157       .  T
C722        N727   1.157       .  T
C723        N725   1.157       .  T
C724        N726   1.157       .  T
C729        C730   1.417       .  A
C729        C734   1.411       .  A
C730        C731   1.419       .  A
C730        C735   1.450       .  S
C731        C732   1.415       .  A
C731        C738   1.448       .  S
C732        C733   1.420       .  A
C733        C734   1.405       .  A
C733        C736   1.455       .  S
C734        C737   1.455       .  S
C735        N742   1.157       .  T
C736        N741   1.158       .  T
C737        N739   1.157       .  T
C738        N740   1.157       .  T
C743        C744   1.417       .  A
C743        C748   1.399       .  A
C744        C745   1.419       .  A
C744        C749   1.447       .  S
C745        C746   1.410       .  A
C745        C752   1.450       .  S
C746        C747   1.427       .  A
C747        C748   1.405       .  A
C747        C750   1.452       .  S
C748        C751   1.453       .  S
C749        N756   1.158       .  T
C750        N755   1.157       .  T
C751        N753   1.157       .  T
C752        N754   1.157       .  T
C757        C758   1.427       .  A
C757        C762   1.397       .  A
C758        C759   1.403       .  A
C758        C763   1.455       .  S
C759        C760   1.405       .  A
C759        C766   1.452       .  S
C760        C761   1.436       .  A
C761        C762   1.403       .  A
C761        C764   1.454       .  S
C762        C765   1.453       .  S
C763        N770   1.158       .  T
C764        N769   1.157       .  T
C765        N767   1.157       .  T
C766        N768   1.157       .  T
C771        C772   1.409       .  A
C771        C776   1.415       .  A
C772        C773   1.405       .  A
C772        C777   1.452       .  S
C773        C774   1.412       .  A
C773        C780   1.450       .  S
C774        C775   1.407       .  A
C775        C776   1.408       .  A
C775        C778   1.450       .  S
C776        C779   1.452       .  S
C777        N784   1.158       .  T
C778        N783   1.157       .  T
C779        N781   1.157       .  T
C780        N782   1.156       .  T
C785        C786   1.420       .  A
C785        C790   1.394       .  A
C786        C787   1.422       .  A
C786        C791   1.445       .  S
C787        C788   1.412       .  A
C787        C794   1.447       .  S
C788        C789   1.432       .  A
C789        C790   1.406       .  A
C789        C792   1.442       .  S
C790        C793   1.452       .  S
C791        N798   1.158       .  T
C792        N797   1.154       .  T
C793        N795   1.157       .  T
C794        N796   1.157       .  T
C799        C800   1.429       .  A
C799        C804   1.399       .  A
C800        C801   1.404       .  A
C800        C805   1.454       .  S
C801        C802   1.402       .  A
C801        C808   1.451       .  S
C802        C803   1.424       .  A
C803        C804   1.395       .  A
C803        C806   1.448       .  S
C804        C807   1.452       .  S
C805        N812   1.157       .  T
C806        N811   1.155       .  T
C807        N809   1.157       .  T
C808        N810   1.157       .  T
C813        C814   1.403       .  A
C813        C818   1.430       .  A
C814        C815   1.412       .  A
C814        C819   1.454       .  S
C815        C816   1.433       .  A
C815        C822   1.449       .  S
C816        C817   1.404       .  A
C817        C818   1.409       .  A
C817        C820   1.454       .  S
C818        C821   1.450       .  S
C819        N826   1.157       .  T
C820        N825   1.157       .  T
C821        N823   1.158       .  T
C822        N824   1.157       .  T
C827        C828   1.412       .  A
C827        C832   1.417       .  A
C828        C829   1.414       .  A
C828        C833   1.451       .  S
C829        C830   1.418       .  A
C829        C836   1.452       .  S
C830        C831   1.416       .  A
C831        C832   1.420       .  A
C831        C834   1.449       .  S
C832        C835   1.451       .  S
C833        N840   1.157       .  T
C834        N839   1.157       .  T
C835        N837   1.157       .  T
C836        N838   1.157   1_556  T
C841        C842   1.408       .  A
C841        C846   1.423       .  A
C842        C843   1.410       .  A
C842        C847   1.451       .  S
C843        C844   1.414       .  A
C843        C850   1.448       .  S
C844        C845   1.397       .  A
C845        C846   1.399       .  A
C845        C848   1.457       .  S
C846        C849   1.444       .  S
C847        N854   1.157       .  T
C848        N853   1.157       .  T
C849        N851   1.154       .  T
C850        N852   1.157       .  T
C855        C856   1.407       .  A
C855        C860   1.427       .  A
C856        C857   1.413       .  A
C856        C861   1.452       .  S
C857        C858   1.427       .  A
C857        C864   1.450       .  S
C858        C859   1.404       .  A
C859        C860   1.410       .  A
C859        C862   1.454       .  S
C860        C863   1.445       .  S
C861        N868   1.157       .  T
C862        N867   1.157       .  T
C863        N865   1.155       .  T
C864        N866   1.157       .  T
C869        C870   1.421       .  A
C869        C874   1.405       .  A
C870        C871   1.434       .  A
C870        C875   1.447       .  S
C871        C872   1.421       .  A
C871        C878   1.447       .  S
C872        C873   1.408       .  A
C873        C874   1.404       .  A
C873        C876   1.450       .  S
C874        C877   1.450       .  S
C875        N882   1.157       .  T
C876        N881   1.158       .  T
C877        N879   1.158       .  T
C878        N880   1.157       .  T
C883        C884   1.433       .  A
C883        C888   1.398       .  A
C884        C885   1.399       .  A
C884        C889   1.450       .  S
C885        C886   1.396       .  A
C885        C892   1.453       .  S
C886        C887   1.435       .  A
C887        C888   1.398       .  A
C887        C890   1.456       .  S
C888        C891   1.454       .  S
C889        N896   1.156       .  T
C890        N895   1.157       .  T
C891        N893   1.158       .  T
C892        N894   1.157       .  T
C897        C898   1.418       .  A
C897        C902   1.404       .  A
C898        C899   1.411       .  A
C898        C903   1.451       .  S
C899        C900   1.409       .  A
C899        C906   1.451       .  S
C900        C901   1.419       .  A
C901        C902   1.404       .  A
C901        C904   1.449       .  S
C902        C905   1.454       .  S
C903        N910   1.157       .  T
C904        N909   1.156       .  T
C905        N907   1.157       .  T
C906        N908   1.157       .  T
C911        C912   1.403       .  A
C911        C916   1.419       .  A
C912        C913   1.407       .  A
C912        C917   1.454       .  S
C913        C914   1.427       .  A
C913        C920   1.454       .  S
C914        C915   1.419       .  A
C915        C916   1.428       .  A
C915        C918   1.448       .  S
C916        C919   1.448       .  S
C917        N924   1.157       .  T
C918        N923   1.158       .  T
C919        N921   1.158       .  T
C920        N922   1.158   1_455  T
C925        C926   1.427       .  A
C925        C930   1.398       .  A
C926        C927   1.400       .  A
C926        C931   1.455       .  S
C927        C928   1.404       .  A
C927        C934   1.453       .  S
C928        C929   1.431       .  A
C929        C930   1.396       .  A
C929        C932   1.453       .  S
C930        C933   1.453       .  S
C931        N938   1.157       .  T
C932        N937   1.157       .  T
C933        N935   1.157       .  T
C934        N936   1.158       .  T
C939        C940   1.403       .  A
C939        C944   1.429       .  A
C940        C941   1.412       .  A
C940        C945   1.453       .  S
C941        C942   1.429       .  A
C941        C948   1.447       .  S
C942        C943   1.405       .  A
C943        C944   1.410       .  A
C943        C946   1.454       .  S
C944        C947   1.448       .  S
C945        N952   1.157       .  T
C946        N951   1.157       .  T
C947        N949   1.156       .  T
C948        N950   1.156       .  T
C953        C954   1.417       .  A
C953        C958   1.404       .  A
C954        C955   1.429       .  A
C954        C959   1.448       .  S
C955        C956   1.423       .  A
C955        C962   1.449       .  S
C956        C957   1.430       .  A
C957        C958   1.409       .  A
C957        C960   1.442       .  S
C958        C961   1.458       .  S
C959        N966   1.157       .  T
C960        N965   1.153       .  T
C961        N963   1.158   1_455  T
C962        N964   1.157       .  T
C967        C968   1.419       .  A
C967        C972   1.397       .  A
C968        C969   1.403       .  A
C968        C973   1.451       .  S
C969        C970   1.411       .  A
C969        C976   1.451       .  S
C970        C971   1.430       .  A
C971        C972   1.397       .  A
C971        C974   1.447       .  S
C972        C975   1.452       .  S
C973        N980   1.157       .  T
C974        N979   1.156       .  T
C975        N977   1.157       .  T
C976        N978   1.157       .  T
C981        C982   1.428       .  A
C981        C986   1.405       .  A
C982        C983   1.409       .  A
C982        C987   1.449       .  S
C983        C984   1.403       .  A
C983        C990   1.453       .  S
C984        C985   1.429       .  A
C985        C986   1.406       .  A
C985        C988   1.452       .  S
C986        C989   1.454       .  S
C987        N994   1.157       .  T
C988        N993   1.158       .  T
C989        N991   1.157       .  T
C990        N992   1.157       .  T
C995        C996   1.416       .  A
C995       C1000   1.413       .  A
C996        C997   1.408       .  A
C996       C1001   1.452       .  S
C997        C998   1.405       .  A
C997       C1004   1.450       .  S
C998        C999   1.421       .  A
C999       C1000   1.418       .  A
C999       C1002   1.451       .  S
C1000      C1003   1.450       .  S
C1001      N1008   1.158   1_455  T
C1002      N1007   1.157       .  T
C1003      N1005   1.157       .  T
C1004      N1006   1.157       .  T
C1009      C1010   1.410       .  A
C1009      C1014   1.410       .  A
C1010      C1011   1.421       .  A
C1010      C1015   1.447       .  S
C1011      C1012   1.424       .  A
C1011      C1018   1.450       .  S
C1012      C1013   1.413       .  A
C1013      C1014   1.397       .  A
C1013      C1016   1.444       .  S
C1014      C1017   1.451       .  S
C1015      N1022   1.158       .  T
C1016      N1021   1.155       .  T
C1017      N1019   1.156       .  T
C1018      N1020   1.157       .  T
C1023      C1024   1.415       .  A
C1023      C1028   1.426       .  A
C1024      C1025   1.420       .  A
C1024      C1029   1.450       .  S
C1025      C1026   1.427       .  A
C1025      C1032   1.451       .  S
C1026      C1027   1.408       .  A
C1027      C1028   1.398       .  A
C1027      C1030   1.451       .  S
C1028      C1031   1.444       .  S
C1029      N1036   1.158       .  T
C1030      N1035   1.157       .  T
C1031      N1033   1.155       .  T
C1032      N1034   1.157       .  T
C1037      C1038   1.418       .  A
C1037      C1042   1.418       .  A
C1038      C1039   1.406       .  A
C1038      C1043   1.453       .  S
C1039      C1040   1.408       .  A
C1039      C1046   1.448       .  S
C1040      C1041   1.412       .  A
C1041      C1042   1.415       .  A
C1041      C1044   1.449       .  S
C1042      C1045   1.451       .  S
C1043      N1050   1.157       .  T
C1044      N1049   1.157       .  T
C1045      N1047   1.157       .  T
C1046      N1048   1.155   1_565  T
C1051      C1052   1.410       .  A
C1051      C1056   1.399       .  A
C1052      C1053   1.408       .  A
C1052      C1057   1.442       .  S
C1053      C1054   1.406       .  A
C1053      C1060   1.451       .  S
C1054      C1055   1.426       .  A
C1055      C1056   1.406       .  A
C1055      C1058   1.451       .  S
C1056      C1059   1.452       .  S
C1057      N1064   1.155       .  T
C1058      N1063   1.157   1_565  T
C1059      N1061   1.158       .  T
C1060      N1062   1.157       .  T
C1065      C1066   1.412       .  A
C1065      C1070   1.432       .  A
C1066      C1067   1.414       .  A
C1066      C1071   1.451       .  S
C1067      C1068   1.429       .  A
C1067      C1074   1.452       .  S
C1068      C1069   1.405       .  A
C1069      C1070   1.399       .  A
C1069      C1072   1.453       .  S
C1070      C1073   1.448       .  S
C1071      N1078   1.158       .  T
C1072      N1077   1.158       .  T
C1073      N1075   1.156       .  T
C1074      N1076   1.158       .  T
C1079      C1080   1.402       .  A
C1079      C1084   1.427       .  A
C1080      C1081   1.403       .  A
C1080      C1085   1.453       .  S
C1081      C1082   1.435       .  A
C1081      C1088   1.455       .  S
C1082      C1083   1.393       .  A
C1083      C1084   1.393       .  A
C1083      C1086   1.454       .  S
C1084      C1087   1.443       .  S
C1085      N1092   1.158       .  T
C1086      N1091   1.157       .  T
C1087      N1089   1.154       .  T
C1088      N1090   1.157       .  T
C1093      C1094   1.418       .  A
C1093      C1098   1.397       .  A
C1094      C1095   1.415       .  A
C1094      C1099   1.447       .  S
C1095      C1096   1.407       .  A
C1095      C1102   1.450       .  S
C1096      C1097   1.425       .  A
C1097      C1098   1.400       .  A
C1097      C1100   1.444       .  S
C1098      C1101   1.456       .  S
C1099      N1106   1.158       .  T
C1100      N1105   1.154       .  T
C1101      N1103   1.157       .  T
C1102      N1104   1.158       .  T
C1107      C1108   1.427       .  A
C1107      C1112   1.399       .  A
C1108      C1109   1.396       .  A
C1108      C1113   1.449       .  S
C1109      C1110   1.397       .  A
C1109      C1116   1.451       .  S
C1110      C1111   1.437       .  A
C1111      C1112   1.402       .  A
C1111      C1114   1.454       .  S
C1112      C1115   1.452       .  S
C1113      N1120   1.155       .  T
C1114      N1119   1.157       .  T
C1115      N1117   1.157       .  T
C1116      N1118   1.157       .  T
C1121      C1122   1.409       .  A
C1121      C1126   1.433       .  A
C1122      C1123   1.417       .  A
C1122      C1127   1.450       .  S
C1123      C1124   1.431       .  A
C1123      C1130   1.447       .  S
C1124      C1125   1.402       .  A
C1125      C1126   1.401       .  A
C1125      C1128   1.454       .  S
C1126      C1129   1.445       .  S
C1127      N1134   1.157       .  T
C1128      N1133   1.157       .  T
C1129      N1131   1.154       .  T
C1130      N1132   1.156       .  T
C1135      C1136   1.415       .  A
C1135      C1140   1.416       .  A
C1136      C1137   1.403       .  A
C1136      C1141   1.454       .  S
C1137      C1138   1.410       .  A
C1137      C1144   1.454       .  S
C1138      C1139   1.416       .  A
C1139      C1140   1.421       .  A
C1139      C1142   1.448       .  S
C1140      C1143   1.449       .  S
C1141      N1148   1.157       .  T
C1142      N1147   1.157       .  T
C1143      N1145   1.157       .  T
C1144      N1146   1.157       .  T
C1149      C1150   1.394       .  A
C1149      C1154   1.418       .  A
C1150      C1151   1.404       .  A
C1150      C1155   1.453       .  S
C1151      C1152   1.429       .  A
C1151      C1158   1.449       .  S
C1152      C1153   1.409       .  A
C1153      C1154   1.419       .  A
C1153      C1156   1.450       .  S
C1154      C1157   1.446       .  S
C1155      N1162   1.157       .  T
C1156      N1161   1.158       .  T
C1157      N1159   1.158       .  T
C1158      N1160   1.156       .  T
C1163      C1164   1.419       .  A
C1163      C1168   1.419       .  A
C1164      C1165   1.408       .  A
C1164      C1169   1.454       .  S
C1165      C1166   1.412       .  A
C1165      C1172   1.454       .  S
C1166      C1167   1.415       .  A
C1167      C1168   1.423       .  A
C1167      C1170   1.449       .  S
C1168      C1171   1.449       .  S
C1169      N1176   1.157       .  T
C1170      N1175   1.157       .  T
C1171      N1173   1.157       .  T
C1172      N1174   1.157       .  T
C1177      C1178   1.406       .  A
C1177      C1182   1.426       .  A
C1178      C1179   1.414       .  A
C1178      C1183   1.452       .  S
C1179      C1180   1.430       .  A
C1179      C1186   1.451       .  S
C1180      C1181   1.407       .  A
C1181      C1182   1.408       .  A
C1181      C1184   1.452       .  S
C1182      C1185   1.443       .  S
C1183      N1190   1.157       .  T
C1184      N1189   1.158       .  T
C1185      N1187   1.157       .  T
C1186      N1188   1.157       .  T
C1191      C1192   1.406       .  A
C1191      C1196   1.413       .  A
C1192      C1193   1.403       .  A
C1192      C1197   1.449       .  S
C1193      C1194   1.416       .  A
C1193      C1200   1.448       .  S
C1194      C1195   1.417       .  A
C1195      C1196   1.416       .  A
C1195      C1198   1.451       .  S
C1196      C1199   1.451       .  S
C1197      N1204   1.155       .  T
C1198      N1203   1.157       .  T
C1199      N1201   1.157       .  T
C1200      N1202   1.155   1_565  T
C1205      C1206   1.433       .  A
C1205      C1210   1.418       .  A
C1206      C1207   1.409       .  A
C1206      C1211   1.451       .  S
C1207      C1208   1.395       .  A
C1207      C1214   1.450       .  S
C1208      C1209   1.408       .  A
C1209      C1210   1.420       .  A
C1209      C1212   1.442       .  S
C1210      C1213   1.447       .  S
C1211      N1218   1.157   1_565  T
C1212      N1217   1.155       .  T
C1213      N1215   1.157       .  T
C1214      N1216   1.157       .  T
C1219      C1220   1.408       .  A
C1219      C1224   1.413       .  A
C1220      C1221   1.406       .  A
C1220      C1225   1.454       .  S
C1221      C1222   1.414       .  A
C1221      C1228   1.446       .  S
C1222      C1223   1.402       .  A
C1223      C1224   1.409       .  A
C1223      C1226   1.444       .  S
C1224      C1227   1.446       .  S
C1225      N1232   1.157       .  T
C1226      N1231   1.156       .  T
C1227      N1229   1.156       .  T
C1228      N1230   1.156       .  T
C1233      C1234   1.434       .  A
C1233      C1238   1.403       .  A
C1234      C1235   1.402       .  A
C1234      C1239   1.452       .  S
C1235      C1236   1.396       .  A
C1235      C1242   1.453       .  S
C1236      C1237   1.430       .  A
C1237      C1238   1.403       .  A
C1237      C1240   1.455       .  S
C1238      C1241   1.452       .  S
C1239      N1246   1.157       .  T
C1240      N1245   1.157       .  T
C1241      N1243   1.157       .  T
C1242      N1244   1.157       .  T
C1247      C1248   1.415       .  A
C1247      C1252   1.402       .  A
C1248      C1249   1.424       .  A
C1248      C1253   1.449       .  S
C1249      C1250   1.420       .  A
C1249      C1256   1.449       .  S
C1250      C1251   1.428       .  A
C1251      C1252   1.409       .  A
C1251      C1254   1.454       .  S
C1252      C1255   1.453       .  S
C1253      N1260   1.157       .  T
C1254      N1259   1.158       .  T
C1255      N1257   1.157       .  T
C1256      N1258   1.158       .  T
C1261      C1262   1.406       .  A
C1261      C1266   1.421       .  A
C1262      C1263   1.410       .  A
C1262      C1267   1.450       .  S
C1263      C1264   1.419       .  A
C1263      C1270   1.451       .  S
C1264      C1265   1.406       .  A
C1265      C1266   1.401       .  A
C1265      C1268   1.455       .  S
C1266      C1269   1.453       .  S
C1267      N1274   1.157       .  T
C1268      N1273   1.158       .  T
C1269      N1271   1.157       .  T
C1270      N1272   1.157       .  T
C1275      C1276   1.418       .  A
C1275      C1280   1.411       .  A
C1276      C1277   1.428       .  A
C1276      C1281   1.448       .  S
C1277      C1278   1.420       .  A
C1277      C1284   1.448       .  S
C1278      C1279   1.423       .  A
C1279      C1280   1.410       .  A
C1279      C1282   1.454       .  S
C1280      C1283   1.454       .  S
C1281      N1288   1.157       .  T
C1282      N1287   1.158       .  T
C1283      N1285   1.157       .  T
C1284      N1286   1.157       .  T
C1289      C1290   1.431       .  A
C1289      C1294   1.407       .  A
C1290      C1291   1.397       .  A
C1290      C1295   1.443       .  S
C1291      C1292   1.398       .  A
C1291      C1298   1.456       .  S
C1292      C1293   1.433       .  A
C1293      C1294   1.417       .  A
C1293      C1296   1.451       .  S
C1294      C1297   1.450       .  S
C1295      N1302   1.152       .  T
C1296      N1301   1.157       .  T
C1297      N1299   1.157       .  T
C1298      N1300   1.158       .  T
C1303      C1304   1.431       .  A
C1303      C1308   1.423       .  A
C1304      C1305   1.411       .  A
C1304      C1309   1.447       .  S
C1305      C1306   1.400       .  A
C1305      C1312   1.452       .  S
C1306      C1307   1.417       .  A
C1307      C1308   1.430       .  A
C1307      C1310   1.448       .  S
C1308      C1311   1.448       .  S
C1309      N1316   1.154       .  T
C1310      N1315   1.157       .  T
C1311      N1313   1.158       .  T
C1312      N1314   1.156   1_565  T
C1317      C1318   1.425       .  A
C1317      C1322   1.403       .  A
C1318      C1319   1.395       .  A
C1318      C1323   1.452       .  S
C1319      C1320   1.403       .  A
C1319      C1326   1.453       .  S
C1320      C1321   1.428       .  A
C1321      C1322   1.393       .  A
C1321      C1324   1.453       .  S
C1322      C1325   1.454       .  S
C1323      N1330   1.156       .  T
C1324      N1329   1.156       .  T
C1325      N1327   1.158       .  T
C1326      N1328   1.157       .  T
C1331      C1332   1.421       .  A
C1331      C1336   1.407       .  A
C1332      C1333   1.418       .  A
C1332      C1337   1.451       .  S
C1333      C1334   1.416       .  A
C1333      C1340   1.450       .  S
C1334      C1335   1.419       .  A
C1335      C1336   1.411       .  A
C1335      C1338   1.452       .  S
C1336      C1339   1.451       .  S
C1337      N1344   1.157       .  T
C1338      N1343   1.158   1_565  T
C1339      N1341   1.157       .  T
C1340      N1342   1.157       .  T
