geometry optimzed in LAMMPS
_audit_creation_date              2020-11-30 
_audit_creation_method            'lammps2cif' 
_symmetry_space_group_name_H-M    'P1' 
_symmetry_Int_Tables_number       1 
_symmetry_cell_setting            triclinic 
loop_ 
_symmetry_equiv_pos_as_xyz 
  x,y,z 
_cell_length_a                    43.21677258 
_cell_length_b                    43.381084306602496 
_cell_length_c                    24.499533208517953 
_cell_angle_alpha                 91.24049036700197 
_cell_angle_beta                  88.58531094221188 
_cell_angle_gamma                 120.50490342509262 
loop_ 
_atom_site_label 
_atom_site_type_symbol 
_atom_site_fract_x 
_atom_site_fract_y 
_atom_site_fract_z 
_atom_site_charge 
C1          C  0.06476563  0.07091768  0.66330808     0.79600
N2          N  0.06795676  0.07771644  0.60890699    -0.78700
C3          C  0.04300800  0.08212232  0.58338536     0.82100
N4          N  0.01462093  0.07934965  0.61264190    -0.78600
C5          C  0.01069317  0.07214953  0.66683102     0.82200
N6          N  0.03630239  0.06856543  0.69255157    -0.80300
C7          C  0.06641550  0.44146819  0.66550384     0.79600
N8          N  0.06968442  0.43903237  0.61030969    -0.78700
C9          C  0.04406437  0.41065819  0.58197398     0.82100
N10         N  0.01537690  0.38440402  0.60942001    -0.78600
C11         C  0.01167873  0.38621185  0.66428683     0.82200
N12         N  0.03746622  0.41482386  0.69255051    -0.80300
C13         C  0.44089040  0.47088330  0.05978322     0.79600
N14         N  0.42722648  0.43504762  0.06293728    -0.78700
C15         C  0.44891692  0.42084846  0.05997734     0.82100
N16         N  0.48497489  0.44354720  0.05715006    -0.78600
C17         C  0.99931178  0.47927286  0.05287445     0.82200
N18         N  0.97705486  0.99257915  0.05768876    -0.80300
O19         O  0.34818445  0.02290637  0.67751244    -0.85900
O20         O  0.40184623  0.09162741  0.69047409    -0.83000
C21         C  0.42780162  0.11956113  0.71026402     0.97500
O22         O  0.45087748  0.11704781  0.73768697    -0.83000
O23         O  0.41129333  0.08982568  0.83500463    -0.85700
C24         C  0.38690316  0.06674779  0.86596425     1.02000
O25         O  0.37058701  0.03371897  0.85412438    -0.78400
O26         O  0.33082220  0.01083156  0.76294790    -0.78600
C27         C  0.32493239  0.01557965  0.71481882     1.02000
O28         O  0.40044041  0.00043269  0.66667164    -0.85900
O29         O  0.45503135  0.07031848  0.66870373    -0.83000
C30         C  0.47886242  0.06908911  0.69620320     0.97500
O31         O  0.47553064  0.06612836  0.74750141    -0.83000
O32         O  0.44131151  0.04826237  0.85090854    -0.85600
C33         C  0.42374397  0.01529896  0.86045613     1.02000
O34         O  0.40397035  0.99398292  0.82413611    -0.78500
O35         O  0.36334192  0.46813122  0.73294713    -0.78600
C36         C  0.38095037  0.47072460  0.68958088     1.02000
Cr37       Cr  0.40162282  0.04598865  0.68189203     1.93700
Cr38       Cr  0.44190492  0.07729683  0.78884160     1.93200
Cr39       Cr  0.36986237  0.00470428  0.78984386     1.39100
O40         O  0.40407261  0.04238618  0.75376718    -1.23700
O41         O  0.40201872  0.25515880  0.68470670    -0.85900
O42         O  0.34893142  0.27066125  0.67747003    -0.83000
C43         C  0.32589752  0.25889224  0.71578452     0.97500
O44         O  0.33350537  0.27228807  0.76287517    -0.83000
O45         O  0.37524058  0.28533976  0.85002745    -0.85700
C46         C  0.38922433  0.26621236  0.85782233     1.02000
O47         O  0.41273226  0.26657012  0.82514669    -0.78400
O48         O  0.45272653  0.28068315  0.72638644    -0.78600
C49         C  0.42832736  0.25365232  0.70216558     1.02000
O50         O  0.45601478  0.33128177  0.66338942    -0.85900
O51         O  0.40090441  0.34506698  0.66339520    -0.83000
C52         C  0.38458737  0.35818142  0.68930100     0.97500
O53         O  0.37112325  0.34739619  0.73636705    -0.83000
O54         O  0.41283993  0.35970367  0.82618127    -0.85600
C55         C  0.43238563  0.35650242  0.86000283     1.02000
O56         O  0.44637689  0.33811882  0.84774286    -0.78500
O57         O  0.47804639  0.35533974  0.74356552    -0.78600
C58         C  0.48028170  0.35639392  0.69205612     1.02000
Cr59       Cr  0.40251267  0.30121989  0.67818079     1.93700
Cr60       Cr  0.37578326  0.31571812  0.78986406     1.93200
Cr61       Cr  0.44450513  0.31034631  0.78206817     1.39100
O62         O  0.40708337  0.30911441  0.75007641    -1.23700
O63         O  0.18099037  0.10313773  0.68176746    -0.85900
O64         O  0.19587354  0.04943783  0.69139528    -0.83000
C65         C  0.19581670  0.02247164  0.70950924     0.97500
O66         O  0.16866925  0.99952934  0.73558648    -0.83000
O67         O  0.18086660  0.03972853  0.83335939    -0.85700
C68         C  0.18120594  0.06363362  0.86479919     1.02000
O69         O  0.16160464  0.07694451  0.85601441    -0.78400
O70         O  0.17871989  0.11857509  0.76692011    -0.78600
C71         C  0.19254442  0.12612645  0.71981457     1.02000
O72         O  0.10653790  0.05140026  0.66542351    -0.85900
O73         O  0.12077796  0.99695867  0.66764046    -0.83000
C74         C  0.09491592  0.47258243  0.69511365     0.97500
O75         O  0.09409470  0.47467836  0.74674075    -0.83000
O76         O  0.10765686  0.00615290  0.85171243    -0.85600
C77         C  0.08738172  0.01868635  0.85941545     1.02000
O78         O  0.08749678  0.03991262  0.82522633    -0.78500
O79         O  0.10405111  0.08231487  0.73629979    -0.78600
C80         C  0.09309945  0.06779620  0.69008379     1.02000
Cr81       Cr  0.15027908  0.04987308  0.68269868     1.93700
Cr82       Cr  0.13793775  0.00809257  0.78835212     1.93200
Cr83       Cr  0.13359848  0.07683271  0.79239007     1.39100
O84         O  0.14071961  0.04543504  0.75442922    -1.23700
C85         C  0.37726235  0.43845152  0.66270023     0.79600
N86         N  0.38191222  0.41397490  0.68982095    -0.78700
C87         C  0.37964591  0.38524839  0.66202890     0.82100
N88         N  0.37112007  0.38038696  0.60825745    -0.78600
C89         C  0.36529224  0.40408017  0.58192893     0.82200
N90         N  0.36876771  0.43311284  0.60926651    -0.80300
C91         C  0.17787278  0.40818844  0.33186574     0.79600
N92         N  0.18374115  0.41752050  0.27855939    -0.78700
C93         C  0.21229975  0.41989188  0.25043099     0.82100
N94         N  0.23532646  0.41262177  0.27607134    -0.78600
C95         C  0.23002785  0.40341921  0.32969413     0.82200
N96         N  0.20155719  0.40180045  0.35788520    -0.80300
C97         C  0.04743089  0.21905808  0.32856268     0.79600
N98         N  0.54173350  0.21560675  0.27372340    -0.78700
C99         C  0.53922678  0.24105360  0.24618114     0.82100
N100        N  0.54304450  0.27015447  0.27358452    -0.78600
C101        C  0.04858900  0.27397374  0.32796148     0.82200
N102        N  0.05001511  0.24795824  0.35604789    -0.80300
C103        C  0.11924943  0.31687094  0.72907381     0.79600
N104        N  0.15553097  0.33539926  0.73327775    -0.78700
C105        C  0.17486438  0.31874072  0.72980563     0.82100
N106        N  0.15688586  0.28250446  0.73015230    -0.78600
C107        C  0.12053370  0.26296191  0.72857932     0.82200
N108        N  0.10209670  0.28063376  0.72954800    -0.80300
O109        O  0.01431218  0.35648189  0.34195244    -0.85900
O110        O  0.06667049  0.42487310  0.35175546    -0.83000
C111        C  0.09232538  0.45330112  0.37037044     0.97500
O112        O  0.11620657  0.45197211  0.39683641    -0.83000
O113        O  0.07569473  0.42569992  0.49549431    -0.85700
C114        C  0.05205361  0.40206175  0.52701816     1.02000
O115        O  0.03785410  0.36899357  0.51639093    -0.78400
O116        O  0.49770202  0.34077838  0.42678873    -0.78600
C117        C  0.49108562  0.34691695  0.37989255     1.02000
O118        O  0.06754834  0.33496989  0.32982683    -0.85900
O119        O  0.12145279  0.40479790  0.33127271    -0.83000
C120        C  0.14584749  0.40535723  0.35996210     0.97500
O121        O  0.14300256  0.40432721  0.41142903    -0.83000
O122        O  0.11016475  0.38920083  0.51452298    -0.85600
C123        C  0.09631008  0.35686076  0.52589125     1.02000
O124        O  0.07600262  0.33326823  0.49222281    -0.78500
O125        O  0.03594319  0.30294775  0.40060232    -0.78600
C126        C  0.05127789  0.30571227  0.35492858     1.02000
Cr127      Cr  0.06789554  0.38002396  0.34483168     1.93700
Cr128      Cr  0.10826418  0.41460629  0.45069945     1.93200
Cr129      Cr  0.03947197  0.33957446  0.45488403     1.39100
O130        O  0.07143641  0.37762801  0.41693706    -1.23700
O131        O  0.06454692  0.08654237  0.35841590    -0.85900
O132        O  0.01200474  0.10184826  0.34942072    -0.83000
C133        C  0.48899266  0.09167993  0.38768089     0.97500
O134        O  0.49688493  0.10697654  0.43357155    -0.83000
O135        O  0.03812714  0.11927449  0.52143686    -0.85700
C136        C  0.05145295  0.09962966  0.53005152     1.02000
O137        O  0.07483740  0.09922306  0.49784658    -0.78400
O138        O  0.11545129  0.11227880  0.39946024    -0.78600
C139        C  0.09121970  0.08548418  0.37482505     1.02000
O140        O  0.11897183  0.16169992  0.33454115    -0.85900
O141        O  0.06433544  0.17572131  0.33177290    -0.83000
C142        C  0.05004107  0.19098489  0.35717426     0.97500
O143        O  0.03747235  0.18216731  0.40524523    -0.83000
O144        O  0.07832574  0.19356344  0.49595264    -0.85600
C145        C  0.09702461  0.18997885  0.53095187     1.02000
O146        O  0.11019589  0.17071414  0.51993736    -0.78500
O147        O  0.14144502  0.18659139  0.41436951    -0.78600
C148        C  0.14358554  0.18678543  0.36274240     1.02000
Cr149      Cr  0.06552714  0.13228343  0.34966149     1.93700
Cr150      Cr  0.04015074  0.14989149  0.46015831     1.93200
Cr151      Cr  0.10749769  0.14238380  0.45418665     1.39100
O152        O  0.07051504  0.14153325  0.42134721    -1.23700
O153        O  0.34708514  0.43379021  0.35203162    -0.85900
O154        O  0.35994704  0.37921409  0.36115066    -0.83000
C155        C  0.35988567  0.35219706  0.37881078     0.97500
O156        O  0.33207446  0.32867803  0.40282231    -0.83000
O157        O  0.34547267  0.36997620  0.49941463    -0.85700
C158        C  0.34589658  0.39399800  0.53057103     1.02000
O159        O  0.32605142  0.40717864  0.52249035    -0.78400
O160        O  0.33938442  0.44883208  0.43492454    -0.78600
C161        C  0.35584604  0.45684026  0.38979668     1.02000
O162        O  0.27246363  0.38440732  0.33189772    -0.85900
O163        O  0.28360755  0.32746247  0.33646095    -0.83000
C164        C  0.25820857  0.30273186  0.36453565     0.97500
O165        O  0.25779284  0.30470454  0.41618935    -0.83000
O166        O  0.27333531  0.33613852  0.52186049    -0.85600
C167        C  0.25360161  0.34900379  0.53178843     1.02000
O168        O  0.25124524  0.36831613  0.49663421    -0.78500
O169        O  0.26466578  0.40935803  0.40641777    -0.78600
C170        C  0.25692307  0.39842009  0.35771770     1.02000
Cr171      Cr  0.31480444  0.38057773  0.35142944     1.93700
Cr172      Cr  0.30207440  0.33799821  0.45636652     1.93200
Cr173      Cr  0.29597204  0.40581222  0.46126149     1.39100
O174        O  0.30421757  0.37532162  0.42283483    -1.23700
C175        C  0.23000256  0.27091353  0.33567389     0.79600
N176        N  0.20050199  0.24491052  0.36238710    -0.78700
C177        C  0.17537724  0.21555788  0.33444269     0.82100
N178        N  0.18020502  0.21215290  0.27998190    -0.78600
C179        C  0.20966461  0.23786065  0.25329040     0.82200
N180        N  0.23441437  0.26693771  0.28150741    -0.80300
C181        C  0.34854850  0.05502853  0.00442558     0.79600
N182        N  0.37492026  0.08424574  0.03079645    -0.78700
C183        C  0.40390755  0.10952683  0.00191066     0.82100
N184        N  0.40649293  0.10523862  0.94717760    -0.78600
C185        C  0.38030008  0.07625489  0.92091985     0.82200
N186        N  0.35170037  0.05126914  0.94987541    -0.80300
C187        C  0.40354567  0.23967443  0.99227314     0.79600
N188        N  0.40653105  0.24531808  0.93739075    -0.78700
C189        C  0.38109117  0.24852848  0.91091380     0.82100
N190        N  0.35240440  0.24540533  0.93948571    -0.78600
C191        C  0.34908531  0.24004753  0.99400639     0.82200
N192        N  0.37514169  0.23786984  0.02090061    -0.80300
C193        C  0.30973343  0.17419209  0.39459687     0.79600
N194        N  0.34598264  0.18952806  0.39606421    -0.78700
C195        C  0.36188308  0.16947413  0.39209208     0.82100
N196        N  0.34057540  0.13332721  0.39030551    -0.78600
C197        C  0.30440119  0.11719416  0.38840017     0.82200
N198        N  0.28940566  0.13793425  0.39301345    -0.80300
O199        O  0.01911896  0.27166455  0.01003954    -0.85900
O200        O  0.03411609  0.21881146  0.02221709    -0.83000
C201        C  0.03527398  0.19268846  0.04082244     0.97500
O202        O  0.00790080  0.16839069  0.06465646    -0.83000
O203        O  0.02173026  0.20933986  0.16117766    -0.85700
C204        C  0.02177410  0.23282040  0.19306548     1.02000
O205        O  0.00257148  0.24664670  0.18423791    -0.78400
O206        O  0.01752104  0.28715030  0.09522409    -0.78600
C207        C  0.03096734  0.29469929  0.04804783     1.02000
O208        O  0.44461325  0.21943017  0.99558339    -0.85900
O209        O  0.45861166  0.16486685  0.00002237    -0.83000
C210        C  0.43313684  0.14109559  0.02900601     0.97500
O211        O  0.43337226  0.14395409  0.08036702    -0.83000
O212        O  0.44965588  0.17673717  0.18253560    -0.85600
C213        C  0.43054555  0.19021368  0.19273426     1.02000
O214        O  0.42817016  0.20984071  0.15813465    -0.78500
O215        O  0.44246947  0.25067591  0.06638584    -0.78600
C216        C  0.43154784  0.23626316  0.01991142     1.02000
Cr217      Cr  0.98841486  0.21821632  0.01274172     1.93700
Cr218      Cr  0.47805856  0.17747230  0.11853846     1.93200
Cr219      Cr  0.47314967  0.24603956  0.12221752     1.39100
O220        O  0.47972281  0.21433926  0.08446678    -1.23700
O221        O  0.23989027  0.42512027  0.02786365    -0.85900
O222        O  0.18637398  0.43957118  0.01466526    -0.83000
C223        C  0.16248346  0.42913654  0.05159115     0.97500
O224        O  0.16915060  0.44389959  0.09791564    -0.83000
O225        O  0.20901645  0.45811140  0.18846915    -0.85700
C226        C  0.22246462  0.43871489  0.19815892     1.02000
O227        O  0.24680493  0.43903153  0.16754512    -0.78400
O228        O  0.28954962  0.45232812  0.07219363    -0.78600
C229        C  0.26625671  0.42472544  0.04775378     1.02000
O230        O  0.29301024  0.50084538  0.00499108    -0.85900
O231        O  0.23747288  0.51383313  0.99780297    -0.83000
C232        C  0.22184558  0.52819291  0.02235487     0.97500
O233        O  0.20817491  0.51860212  0.06951845    -0.83000
O234        O  0.24752519  0.03252997  0.16120156    -0.85600
C235        C  0.26719301  0.03103724  0.19664483     1.02900
O236        O  0.28005603  0.01116100  0.18843578    -0.78500
O237        O  0.31391008  0.52672403  0.08485323    -0.78600
C238        C  0.31687324  0.52646774  0.03334030     1.02000
Cr239      Cr  0.23960102  0.47068069  0.01738102     1.93700
Cr240      Cr  0.21111170  0.48765001  0.12559846     1.93200
Cr241      Cr  0.27959260  0.48233711  0.12448745     1.39100
O242        O  0.24289874  0.48022920  0.08902544    -1.23700
O243        O  0.19628774  0.21781683  0.02659133    -0.85900
O244        O  0.26399871  0.27157827  0.01408439    -0.83000
C245        C  0.27269874  0.29421040  0.05248146     0.97500
O246        O  0.27934077  0.28749062  0.09890605    -0.83000
O247        O  0.25320646  0.24629255  0.18803729    -0.85700
C248        C  0.21984729  0.23044875  0.19910139     1.02000
O249        O  0.19684629  0.20615953  0.16803473    -0.78400
O250        O  0.17046691  0.16749493  0.06980741    -0.78600
C251        C  0.16825094  0.19156566  0.04541796     1.02000
O252        O  0.21786349  0.16496658  0.00039161    -0.85900
O253        O  0.28755048  0.22017021  0.99813578    -0.83000
C254        C  0.31719966  0.23704960  0.02219625     0.97500
O255        O  0.32002144  0.25226899  0.06801825    -0.83000
O256        O  0.29192300  0.21145277  0.15924729    -0.85600
C257        C  0.26947103  0.19169370  0.19469971     1.02000
O258        O  0.23677657  0.17471182  0.18353375    -0.78500
O259        O  0.22090357  0.14301594  0.07876758    -0.78600
C260        C  0.21833756  0.14049489  0.02735247     1.02000
Cr261      Cr  0.24177725  0.21819161  0.01584080     1.93700
Cr262      Cr  0.28314268  0.24678544  0.12460245     1.93200
Cr263      Cr  0.20947051  0.17585472  0.12115287     1.39100
O264        O  0.24525628  0.21400235  0.08738383    -1.23700
C265        C  0.21800093  0.05577080  0.99461255     0.79600
N266        N  0.22080018  0.08449182  0.02303340    -0.78700
C267        C  0.21474074  0.10859438  0.99783351     0.82100
N268        N  0.20427839  0.10271892  0.94492890    -0.78600
C269        C  0.20077442  0.07380909  0.91654818     0.82200
N270        N  0.20796490  0.05057121  0.94149481    -0.80300
C271        C  0.24802382  0.36308613  0.00997144    -0.21900
C272        C  0.27015005  0.39240988  0.04395720    -0.09900
C273        C  0.29493358  0.38976264  0.07714950     0.28900
C274        C  0.29661089  0.35841529  0.07751656    -0.21900
C275        C  0.27405681  0.32884664  0.04460092    -0.10000
C276        C  0.25004004  0.33168463  0.00997636     0.28900
F277        F  0.22698015  0.30340706  0.97866922    -0.20500
H278        H  0.22856445  0.36413735  0.98424198     0.17300
H279        H  0.31512628  0.35695402  0.10488720     0.17300
F280        F  0.31653756  0.41681894  0.11154196    -0.20500
C281        C  0.06905012  0.16121893  0.05806432    -0.21900
C282        C  0.06849920  0.19078925  0.03669909    -0.09900
C283        C  0.10057704  0.21942879  0.01551264     0.28900
C284        C  0.13245642  0.21872632  0.01692967    -0.21900
C285        C  0.13328738  0.18967562  0.03966348    -0.10000
C286        C  0.10103208  0.16057160  0.05965642     0.28900
F287        F  0.10036652  0.13184465  0.08190941    -0.20500
H288        H  0.04480697  0.13881418  0.07484359     0.17300
H289        H  0.15681977  0.24161222  0.00147997     0.17300
F290        F  0.10160870  0.24878881  0.99512607    -0.20500
C291        C  0.06552929  0.35859423  0.07523487    -0.21900
C292        C  0.06168249  0.33123604  0.03931149    -0.09900
C293        C  0.08944717  0.33844198  0.00132626     0.28900
C294        C  0.12154599  0.37159446  0.00266666    -0.21900
C295        C  0.12638441  0.39775804  0.04201096    -0.10000
C296        C  0.09738979  0.39142343  0.07675453     0.28900
F297        F  0.10027452  0.41630391  0.11410200    -0.20500
H298        H  0.04430505  0.35397833  0.10425293     0.17300
H299        H  0.14344241  0.37583932  0.97538316     0.17300
F300        F  0.08684456  0.31266447  0.96612655    -0.20500
C301        C  0.25197021  0.17174945  0.29073797    -0.21900
C302        C  0.27907203  0.19321317  0.25259978    -0.09900
C303        C  0.31259700  0.21969527  0.27250571     0.28900
C304        C  0.32018717  0.22041775  0.32781398    -0.21900
C305        C  0.29562689  0.19295362  0.36260496    -0.10000
C306        C  0.25978431  0.17273440  0.34579270     0.28900
F307        F  0.23385193  0.14899130  0.38015943    -0.20500
H308        H  0.22482442  0.15318532  0.27784823     0.17300
H309        H  0.34704203  0.23921507  0.34118055     0.17300
F310        F  0.33832264  0.24414640  0.23869842    -0.20500
C311        C  0.25778785  0.08062089  0.31952132    -0.21900
C312        C  0.28614318  0.08496849  0.35245042    -0.09900
C313        C  0.30396346  0.06641598  0.33720552     0.28900
C314        C  0.29764738  0.04918562  0.28648754    -0.21900
C315        C  0.27280546  0.04918101  0.25038803    -0.10000
C316        C  0.25134144  0.06318638  0.26883185     0.28900
F317        F  0.22469915  0.06083076  0.23757627    -0.20500
H318        H  0.24257352  0.09347735  0.33040968     0.17300
H319        H  0.31319356  0.03678380  0.27482492     0.17300
F320        F  0.32980371  0.06759296  0.36910026    -0.20500
C321        C  0.41598876  0.21657721  0.27342951    -0.21900
C322        C  0.41737854  0.18771956  0.24917274    -0.09900
C323        C  0.41377041  0.16008166  0.28270117     0.28900
C324        C  0.40441967  0.15919706  0.33759605    -0.21900
C325        C  0.39549191  0.18410383  0.35881465    -0.10000
C326        C  0.40652680  0.21547043  0.32861079     0.28900
F327        F  0.40497846  0.24355246  0.35085258    -0.20500
H328        H  0.42238475  0.23998977  0.24985098     0.17300
H329        H  0.39854198  0.13579938  0.36080693     0.17300
F330        F  0.41743181  0.13281640  0.26186153    -0.20500
C331        C  0.42601229  0.05314122  0.42088805    -0.21900
C332        C  0.45242772  0.06010803  0.38066375    -0.09900
C333        C  0.44464320  0.03444728  0.33886553     0.28900
C334        C  0.41213116  0.50166353  0.33991559    -0.21900
C335        C  0.38698779  0.49370756  0.38278093    -0.10000
C336        C  0.39384780  0.52050064  0.42223503     0.28900
F337        F  0.37030560  0.51470101  0.46397078    -0.20500
H338        H  0.43089804  0.07246266  0.45320311     0.17300
H339        H  0.40758709  0.48170200  0.30887460     0.17300
F340        F  0.46932075  0.03989803  0.29916466    -0.20500
C341        C  0.42595373  0.32049569  0.40253035    -0.21900
C342        C  0.45593955  0.34440706  0.37112947    -0.09900
C343        C  0.45308959  0.36908752  0.33823337     0.28900
C344        C  0.42160317  0.37110448  0.33971041    -0.21900
C345        C  0.39201682  0.34795938  0.37285874    -0.10000
C346        C  0.39432249  0.32187915  0.40309727     0.28900
F347        F  0.36671637  0.29875003  0.43573208    -0.20500
H348        H  0.42739049  0.30127799  0.42826781     0.17300
H349        H  0.42070141  0.39135382  0.31584364     0.17300
F350        F  0.48143267  0.39274349  0.30730964    -0.20500
C351        C  0.12312750  0.01918449  0.38575090    -0.21900
C352        C  0.09420587  0.48803430  0.36338169    -0.09900
C353        C  0.06602193  0.49022470  0.33965432     0.28900
C354        C  0.06601000  0.02246180  0.34130010    -0.21900
C355        C  0.09392576  0.05302931  0.36659836    -0.10000
C356        C  0.12308384  0.05129487  0.38743910     0.28900
F357        F  0.15098400  0.08015026  0.41161960    -0.20500
H358        H  0.14533407  0.01847332  0.40397469     0.17300
H359        H  0.04338306  0.02306940  0.32446856     0.17300
F360        F  0.03787005  0.46110140  0.31659008    -0.20500
C361        C  0.07470691  0.22065971  0.66405681    -0.21900
C362        C  0.10517112  0.22954471  0.69516457    -0.09900
C363        C  0.12795051  0.21699171  0.67644811     0.28900
C364        C  0.12531073  0.20435570  0.62280012    -0.21900
C365        C  0.09931129  0.20302434  0.58773090    -0.10000
C366        C  0.07248985  0.20889456  0.61009289     0.28900
F367        F  0.04452401  0.20405331  0.57964076    -0.20500
H368        H  0.05483469  0.22706117  0.67879934     0.17300
H369        H  0.14461377  0.19708210  0.60803981     0.17300
F370        F  0.15532093  0.22090178  0.70758577    -0.20500
C371        C  0.21258611  0.36437897  0.66064707    -0.21900
C372        C  0.20736971  0.33579089  0.69363138    -0.09900
C373        C  0.22354564  0.31600394  0.67638341     0.28900
C374        C  0.23810507  0.32021668  0.62357759    -0.21900
C375        C  0.23764614  0.34478093  0.58735199    -0.10000
C376        C  0.22642717  0.36814963  0.60754738     0.28900
F377        F  0.22803336  0.39420738  0.57583586    -0.20500
H378        H  0.20246236  0.38166980  0.67341341     0.17300
H379        H  0.24872124  0.30333722  0.61049450     0.17300
F380        F  0.22226101  0.29028746  0.70861569    -0.20500
C381        C  0.07186698  0.31715004  0.60668921    -0.21900
C382        C  0.09965875  0.34820461  0.58249083    -0.09900
C383        C  0.12684670  0.37411112  0.61612434     0.28900
C384        C  0.12833358  0.36688391  0.67083022    -0.21900
C385        C  0.10434399  0.33285941  0.69219914    -0.10000
C386        C  0.07355391  0.31002142  0.66156743     0.28900
F387        F  0.04645534  0.27941281  0.68323801    -0.20500
H388        H  0.04878777  0.29837721  0.58318321     0.17300
H389        H  0.15101422  0.38634152  0.69436799     0.17300
F390        F  0.15298400  0.40589421  0.59578302    -0.20500
C391        C  0.26101131  0.22385893  0.74079753    -0.21900
C392        C  0.28957326  0.22777271  0.70719068    -0.09900
C393        C  0.28405123  0.19948027  0.67186426     0.28900
C394        C  0.25130311  0.16699750  0.67330308    -0.21900
C395        C  0.22381038  0.16224842  0.71018942    -0.10000
C396        C  0.22844953  0.19150693  0.74234266     0.28900
F397        F  0.20197978  0.18843718  0.77685692    -0.20500
H398        H  0.26447067  0.24543791  0.76786296     0.17300
H399        H  0.24837626  0.14480769  0.64826546     0.17300
F400        F  0.31125427  0.20202991  0.63967302    -0.20500
C401        C  0.40377532  0.15700353  0.67366751    -0.21900
C402        C  0.43071155  0.15499918  0.70194308    -0.09900
C403        C  0.45874488  0.18673940  0.72490262     0.28900
C404        C  0.45850995  0.21885303  0.72228139    -0.21900
C405        C  0.43048119  0.22041650  0.69682876    -0.10000
C406        C  0.40356580  0.18919664  0.67101331     0.28900
F407        F  0.37637630  0.18931155  0.64461822    -0.20500
H408        H  0.38204965  0.13327854  0.65488106     0.17300
H409        H  0.47981666  0.24235462  0.74219440     0.17300
F410        F  0.48585148  0.18672508  0.75168972    -0.20500
C411        C  0.25915643  0.98749238  0.72957205    -0.21900
C412        C  0.29052443  0.01345049  0.70328065    -0.09900
C413        C  0.28939202  0.03993049  0.67266862     0.28900
C414        C  0.25806252  0.04211272  0.67268716    -0.21900
C415        C  0.22721497  0.01737867  0.70208822    -0.10000
C416        C  0.22767869  0.98893929  0.72834078     0.28900
F417        F  0.19830456  0.46338251  0.75551682    -0.20500
H418        H  0.25937121  0.46664882  0.75290794     0.17300
H419        H  0.25840668  0.06393220  0.65146817     0.17300
F420        F  0.31927095  0.06523237  0.64624062    -0.20500
C421        C  0.46199011  0.38010033  0.00610633    -0.21900
C422        C  0.43571646  0.38710889  0.02790583    -0.09900
C423        C  0.40390883  0.37447117  0.99812049     0.28900
C424        C  0.40369405  0.36652013  0.94246916    -0.21900
C425        C  0.43379011  0.36753697  0.91752416    -0.10000
C426        C  0.46177486  0.37169084  0.95085191     0.28900
F427        F  0.48999780  0.36967903  0.92950234    -0.20500
H428        H  0.98578250  0.38697251  0.02913346     0.17300
H429        H  0.37999500  0.35938719  0.91903955     0.17300
F430        F  0.37457067  0.37349452  0.02122563    -0.20500
C431        C  0.02901283  0.02107890  0.97548637    -0.21900
C432        C  0.02977168  0.49733194  0.01327811    -0.09900
C433        C  0.05201385  0.48300349  0.00127057     0.28900
C434        C  0.07026890  0.48983446  0.95105450    -0.21900
C435        C  0.06682747  0.01103747  0.91154586    -0.10000
C436        C  0.04664613  0.02731109  0.92495923     0.28900
F437        F  0.04284823  0.04835339  0.88872931    -0.20500
H438        H  0.01227969  0.03272888  0.98272930     0.17300
H439        H  0.08658578  0.47780160  0.94273057     0.17300
F440        F  0.05429223  0.46052914  0.03653333    -0.20500
C441        C  0.39698015  0.45818152  0.98761010    -0.21900
C442        C  0.42114026  0.48298645  0.02585569    -0.09900
C443        C  0.43837270  0.01944665  0.01272414     0.28900
C444        C  0.43959718  0.02952757  0.95863873    -0.21900
C445        C  0.42167059  0.00358338  0.91745571    -0.10000
C446        C  0.39812592  0.46808243  0.93335276     0.28900
F447        F  0.37722102  0.44252898  0.89644398    -0.20500
H448        H  0.38088070  0.43041317  0.99730328     0.17300
H449        H  0.45561636  0.05761058  0.94890105     0.17300
F450        F  0.45890918  0.04482318  0.05013774    -0.20500
C451        C  0.06474857  0.57091324  0.66333940     0.79600
N452        N  0.06794038  0.57772339  0.60894228    -0.78700
C453        C  0.04300347  0.58215630  0.58343689     0.82100
N454        N  0.01462638  0.57939736  0.61270410    -0.78600
C455        C  0.01069646  0.57218367  0.66688872     0.82200
N456        N  0.03629488  0.56857422  0.69259455    -0.80300
C457        C  0.06643103  0.94146827  0.66550828     0.79600
N458        N  0.06969768  0.93902299  0.61031480    -0.78700
C459        C  0.04407303  0.91064688  0.58198599     0.82100
N460        N  0.01538365  0.88439950  0.60943877    -0.78600
C461        C  0.01168502  0.88621696  0.66430437     0.82200
N462        N  0.03747747  0.91483102  0.69256085    -0.80300
C463        C  0.44086177  0.97086578  0.05975318     0.79600
N464        N  0.42718929  0.93502888  0.06292802    -0.78700
C465        C  0.44887304  0.92082206  0.05997589     0.82100
N466        N  0.48493233  0.94351386  0.05712580    -0.78600
C467        C  0.99927589  0.97923930  0.05283305     0.82200
N468        N  0.97708349  0.49260490  0.05772616    -0.80300
O469        O  0.34819013  0.52293975  0.67757624    -0.85900
O470        O  0.40184641  0.59165437  0.69055075    -0.83000
C471        C  0.42780474  0.61958890  0.71033123     0.97500
O472        O  0.45087901  0.61707528  0.73775514    -0.83000
O473        O  0.41127476  0.58983160  0.83505288    -0.85700
C474        C  0.38688911  0.56674593  0.86600950     1.02000
O475        O  0.37058865  0.53371668  0.85417190    -0.78400
O476        O  0.33082068  0.51081000  0.76300034    -0.78600
C477        C  0.32493350  0.51558615  0.71488382     1.02000
O478        O  0.40044352  0.50046212  0.66668780    -0.85900
O479        O  0.45503543  0.57035030  0.66876700    -0.83000
C480        C  0.47886921  0.56912553  0.69626689     0.97500
O481        O  0.47554148  0.56616831  0.74756643    -0.83000
O482        O  0.44131982  0.54829625  0.85097438    -0.85600
C483        C  0.42376999  0.51533221  0.86051167     1.02000
O484        O  0.40400968  0.49401442  0.82418114    -0.78500
O485        O  0.36330040  0.96811783  0.73290675    -0.78600
C486        C  0.38092590  0.97070054  0.68956555     1.02000
Cr487      Cr  0.40162669  0.54601780  0.68194838     1.93700
Cr488      Cr  0.44190492  0.57732231  0.78890278     1.93200
Cr489      Cr  0.36988187  0.50471033  0.78989000     1.39100
O490        O  0.40407998  0.54240497  0.75382017    -1.23700
O491        O  0.40202316  0.75517215  0.68472312    -0.85900
O492        O  0.34891933  0.77065028  0.67749126    -0.83000
C493        C  0.32588622  0.75887215  0.71580766     0.97500
O494        O  0.33349191  0.77226572  0.76289889    -0.83000
O495        O  0.37522927  0.78533696  0.85004207    -0.85700
C496        C  0.38921713  0.76621267  0.85782614     1.02000
O497        O  0.41273037  0.76658130  0.82515241    -0.78400
O498        O  0.45273094  0.78070921  0.72640431    -0.78600
C499        C  0.42833741  0.75367598  0.70218002     1.02000
O500        O  0.45600611  0.83129886  0.66341061    -0.85900
O501        O  0.40088249  0.84506123  0.66342656    -0.83000
C502        C  0.38455164  0.85816121  0.68932861     0.97500
O503        O  0.37107932  0.84736816  0.73638660    -0.83000
O504        O  0.41280043  0.85969960  0.82619567    -0.85600
C505        C  0.43234989  0.85650550  0.86001760     1.02000
O506        O  0.44635188  0.83813121  0.84775730    -0.78500
O507        O  0.47803567  0.85536051  0.74358638    -0.78600
C508        C  0.48027695  0.85640910  0.69207677     1.02000
Cr509      Cr  0.40250220  0.80122343  0.67820139     1.93700
Cr510      Cr  0.37575771  0.81570564  0.78988219     1.93200
Cr511      Cr  0.44449675  0.81036348  0.78208574     1.39100
O512        O  0.40706954  0.80911853  0.75009462    -1.23700
O513        O  0.18096730  0.60312320  0.68177338    -0.85900
O514        O  0.19585769  0.54942651  0.69139875    -0.83000
C515        C  0.19580111  0.52246050  0.70951510     0.97500
O516        O  0.16864813  0.49951283  0.73557650    -0.83000
O517        O  0.18085474  0.53970733  0.83335612    -0.85700
C518        C  0.18119683  0.56361347  0.86479658     1.02000
O519        O  0.16159253  0.57692181  0.85601905    -0.78400
O520        O  0.17870980  0.61855184  0.76693466    -0.78600
C521        C  0.19253015  0.62610621  0.71982748     1.02000
O522        O  0.10651312  0.55138170  0.66543863    -0.85900
O523        O  0.12076493  0.49694784  0.66764666    -0.83000
C524        C  0.09493280  0.97259013  0.69511112     0.97500
O525        O  0.09411393  0.97468951  0.74673782    -0.83000
O526        O  0.10764634  0.50613949  0.85172373    -0.85600
C527        C  0.08737762  0.51868021  0.85943498     1.02000
O528        O  0.08748465  0.53989708  0.82523642    -0.78500
O529        O  0.10404043  0.58230305  0.73631616    -0.78600
C530        C  0.09308047  0.56778194  0.69010411     1.02000
Cr531      Cr  0.15026018  0.54985908  0.68270457     1.93700
Cr532      Cr  0.13792114  0.50807481  0.78835366     1.93200
Cr533      Cr  0.13358611  0.57681510  0.79240137     1.39100
O534        O  0.14070353  0.54541835  0.75443554    -1.23700
C535        C  0.37722815  0.93842245  0.66270677     0.79600
N536        N  0.38187654  0.91394982  0.68983879    -0.78700
C537        C  0.37960324  0.88521826  0.66205653     0.82100
N538        N  0.37107317  0.88034774  0.60828877    -0.78600
C539        C  0.36524879  0.90403928  0.58195313     0.82200
N540        N  0.36873073  0.93307730  0.60927687    -0.80300
C541        C  0.17786107  0.90817547  0.33185539     0.79600
N542        N  0.18374221  0.91752342  0.27855604    -0.78700
C543        C  0.21231292  0.91991221  0.25044057     0.82100
N544        N  0.23533848  0.91264219  0.27608695    -0.78600
C545        C  0.23002585  0.90342208  0.32970351     0.82200
N546        N  0.20154381  0.90178763  0.35788129    -0.80300
C547        C  0.04746319  0.71907075  0.32852439     0.79600
N548        N  0.54177512  0.71562263  0.27368057    -0.78700
C549        C  0.53925781  0.74106489  0.24613866     0.82100
N550        N  0.54305532  0.77015623  0.27354883    -0.78600
C551        C  0.04858747  0.77397034  0.32792963     0.82200
N552        N  0.05002502  0.74796029  0.35601216    -0.80300
C553        C  0.11926661  0.81695248  0.72909095     0.79600
N554        N  0.15554824  0.83547661  0.73330807    -0.78700
C555        C  0.17487688  0.81881206  0.72985868     0.82100
N556        N  0.15689211  0.78257628  0.73020353    -0.78600
C557        C  0.12054261  0.76303906  0.72857311     0.82200
N558        N  0.10210991  0.78071441  0.72953503    -0.80300
O559        O  0.01429545  0.85651483  0.34198607    -0.85900
O560        O  0.06667478  0.92488875  0.35176294    -0.83000
C561        C  0.09233947  0.95331009  0.37037461     0.97500
O562        O  0.11621260  0.95196374  0.39683154    -0.83000
O563        O  0.07569030  0.92568638  0.49549330    -0.85700
C564        C  0.05205064  0.90204812  0.52702134     1.02000
O565        O  0.03784229  0.86897866  0.51638856    -0.78400
O566        O  0.49767673  0.84072739  0.42679672    -0.78600
C567        C  0.49106605  0.84691027  0.37992640     1.02000
O568        O  0.06749041  0.83495377  0.32978740    -0.85900
O569        O  0.12142976  0.90476689  0.33125237    -0.83000
C570        C  0.14582869  0.90533414  0.35994406     0.97500
O571        O  0.14298661  0.90430809  0.41141120    -0.83000
O572        O  0.11016394  0.88920064  0.51450771    -0.85600
C573        C  0.09631144  0.85686609  0.52589633     1.02000
O574        O  0.07600346  0.83326411  0.49224035    -0.78500
O575        O  0.03595799  0.80293344  0.40061120    -0.78600
C576        C  0.05125878  0.80570044  0.35490532     1.02000
Cr577      Cr  0.06787285  0.88002249  0.34482899     1.93700
Cr578      Cr  0.10825610  0.91459304  0.45068715     1.93200
Cr579      Cr  0.03946687  0.83955563  0.45488721     1.39100
O580        O  0.07142269  0.87761535  0.41693220    -1.23700
O581        O  0.06450727  0.58652675  0.35845741    -0.85900
O582        O  0.01200430  0.60190332  0.34942333    -0.83000
C583        C  0.48899235  0.59171926  0.38768613     0.97500
O584        O  0.49689109  0.60698666  0.43359840    -0.83000
O585        O  0.03813848  0.61931747  0.52147620    -0.85700
C586        C  0.05144914  0.59966004  0.53009956     1.02000
O587        O  0.07481966  0.59923193  0.49789091    -0.78400
O588        O  0.11541350  0.61223930  0.39950618    -0.78600
C589        C  0.09117533  0.58545487  0.37485834     1.02000
O590        O  0.11897928  0.66165584  0.33455775    -0.85900
O591        O  0.06439601  0.67575361  0.33177617    -0.83000
C592        C  0.05007395  0.69100035  0.35714813     0.97500
O593        O  0.03747555  0.68216655  0.40520344    -0.83000
O594        O  0.07834809  0.69359549  0.49590977    -0.85600
C595        C  0.09704655  0.69001909  0.53092026     1.02000
O596        O  0.11020352  0.67073690  0.51993748    -0.78500
O597        O  0.14144989  0.68656631  0.41437420    -0.78600
C598        C  0.14359275  0.68674690  0.36274846     1.02000
Cr599      Cr  0.06553257  0.63228822  0.34967749     1.93700
Cr600      Cr  0.04016034  0.64991201  0.46015775     1.93200
Cr601      Cr  0.10748995  0.64237623  0.45421184     1.39100
O602        O  0.07051805  0.64153881  0.42136156    -1.23700
O603        O  0.34704746  0.93375658  0.35206340    -0.85900
O604        O  0.35991334  0.87918832  0.36122185    -0.83000
C605        C  0.35985402  0.85217117  0.37887725     0.97500
O606        O  0.33203993  0.82864415  0.40287414    -0.83000
O607        O  0.34542112  0.86992828  0.49945675    -0.85700
C608        C  0.34584904  0.89395259  0.53060758     1.02000
O609        O  0.32600633  0.90713502  0.52253039    -0.78400
O610        O  0.33938415  0.94879060  0.43497882    -0.78600
C611        C  0.35583510  0.95679906  0.38984389     1.02000
O612        O  0.27242858  0.88436726  0.33193000    -0.85900
O613        O  0.28358964  0.82743117  0.33649516    -0.83000
C614        C  0.25818634  0.80269845  0.36455779     0.97500
O615        O  0.25775403  0.80467073  0.41621050    -0.83000
O616        O  0.27327777  0.83610650  0.52188432    -0.85600
C617        C  0.25356123  0.84899233  0.53181587     1.02000
O618        O  0.25121101  0.86830639  0.49665637    -0.78500
O619        O  0.26466774  0.90936315  0.40642771    -0.78600
C620        C  0.25691127  0.89840972  0.35773502     1.02000
Cr621      Cr  0.31477224  0.88054446  0.35147007     1.93700
Cr622      Cr  0.30202731  0.83795931  0.45640341     1.93200
Cr623      Cr  0.29594909  0.90578890  0.46129251     1.39100
O624        O  0.30417912  0.87528674  0.42287123    -1.23700
C625        C  0.22999449  0.77087972  0.33568540     0.79600
N626        N  0.20049922  0.74486945  0.36239318    -0.78700
C627        C  0.17538187  0.71551625  0.33444572     0.82100
N628        N  0.18020935  0.71211840  0.27998229    -0.78600
C629        C  0.20966505  0.73783539  0.25329371     0.82200
N630        N  0.23440987  0.76691262  0.28151684    -0.80300
C631        C  0.34853852  0.55501864  0.00447113     0.79600
N632        N  0.37490773  0.58423630  0.03084200    -0.78700
C633        C  0.40388881  0.60951889  0.00195100     0.82100
N634        N  0.40647084  0.60523261  0.94721808    -0.78600
C635        C  0.38028097  0.57624831  0.92096236     0.82200
N636        N  0.35168674  0.55125940  0.94992012    -0.80300
C637        C  0.40353026  0.73965954  0.99226338     0.79600
N638        N  0.40651819  0.74530662  0.93738229    -0.78700
C639        C  0.38107984  0.74851847  0.91090474     0.82100
N640        N  0.35239237  0.74539452  0.93947210    -0.78600
C641        C  0.34907130  0.74003797  0.99399086     0.82200
N642        N  0.37512563  0.73785711  0.02088941    -0.80300
C643        C  0.30972710  0.67420204  0.39455068     0.79600
N644        N  0.34597493  0.68953128  0.39602971    -0.78700
C645        C  0.36186910  0.66947165  0.39206974     0.82100
N646        N  0.34055599  0.63332521  0.39029206    -0.78600
C647        C  0.30438189  0.61719748  0.38839122     0.82200
N648        N  0.28939272  0.63794435  0.39298082    -0.80300
O649        O  0.01912550  0.77164040  0.00997619    -0.85900
O650        O  0.03409547  0.71877221  0.02216413    -0.83000
C651        C  0.03524974  0.69264847  0.04077359     0.97500
O652        O  0.00788171  0.66836222  0.06463172    -0.83000
O653        O  0.02175531  0.70934446  0.16113440    -0.85700
C654        C  0.02180750  0.73283211  0.19301647     1.02000
O655        O  0.00260944  0.74666383  0.18418347    -0.78400
O656        O  0.01752138  0.78715105  0.09514574    -0.78600
C657        C  0.03096954  0.79468654  0.04796835     1.02000
O658        O  0.44460674  0.71942399  0.99556065    -0.85900
O659        O  0.45858593  0.66484900  0.00002922    -0.83000
C660        C  0.43311913  0.64108654  0.02903251     0.97500
O661        O  0.43336733  0.64395250  0.08039294    -0.83000
O662        O  0.44969112  0.67675753  0.18254541    -0.85600
C663        C  0.43057821  0.69023065  0.19274212     1.02000
O664        O  0.42819532  0.70985019  0.15813780    -0.78500
O665        O  0.44245753  0.75065827  0.06637429    -0.78600
C666        C  0.43153563  0.73624911  0.01989831     1.02000
Cr667      Cr  0.98840368  0.71819560  0.01271020     1.93700
Cr668      Cr  0.47806776  0.67747220  0.11852788     1.93200
Cr669      Cr  0.47316294  0.74604146  0.12218326     1.39100
O670        O  0.47972830  0.71433431  0.08444044    -1.23700
O671        O  0.23987467  0.92512831  0.02784708    -0.85900
O672        O  0.18637078  0.93959801  0.01461825    -0.83000
C673        C  0.16248097  0.92912486  0.05154948     0.97500
O674        O  0.16914483  0.94385564  0.09789793    -0.83000
O675        O  0.20901167  0.95811504  0.18846465    -0.85700
C676        C  0.22247711  0.93873640  0.19816728     1.02000
O677        O  0.24682251  0.93906247  0.16755536    -0.78400
O678        O  0.28953473  0.95233226  0.07218178    -0.78600
C679        C  0.26623581  0.92472847  0.04774813     1.02000
O680        O  0.29301544  0.00084682  0.00496006    -0.85900
O681        O  0.23749479  0.01385802  0.99780365    -0.83000
C682        C  0.22183243  0.02818550  0.02234288     0.97500
O683        O  0.20812492  0.01855940  0.06948004    -0.83000
O684        O  0.24757628  0.53253614  0.16121502    -0.85600
C685        C  0.26721153  0.53101608  0.19668594     1.02900
O686        O  0.28005372  0.51112096  0.18849223    -0.78500
O687        O  0.31390776  0.02674228  0.08480825    -0.78600
C688        C  0.31687736  0.02647760  0.03329790     1.02000
Cr689      Cr  0.23960182  0.97069464  0.01735865     1.93700
Cr690      Cr  0.21108552  0.98762989  0.12557753     1.93200
Cr691      Cr  0.27959369  0.98235916  0.12446288     1.39100
O692        O  0.24289244  0.98023630  0.08900606    -1.23700
O693        O  0.19627357  0.71781646  0.02656078    -0.85900
O694        O  0.26398918  0.77158437  0.01406113    -0.83000
C695        C  0.27267557  0.79421121  0.05246565     0.97500
O696        O  0.27931268  0.78748918  0.09889170    -0.83000
O697        O  0.25320492  0.74628590  0.18802176    -0.85700
C698        C  0.21984647  0.73043827  0.19909234     1.02000
O699        O  0.19684499  0.70615662  0.16801727    -0.78400
O700        O  0.17046280  0.66749744  0.06978719    -0.78600
C701        C  0.16824016  0.69156226  0.04539198     1.02000
O702        O  0.21785161  0.66496639  0.00035717    -0.85900
O703        O  0.28753744  0.72016597  0.99811313    -0.83000
C704        C  0.31718776  0.73705154  0.02216966     0.97500
O705        O  0.32001273  0.75229202  0.06797218    -0.83000
O706        O  0.29193142  0.71146232  0.15917524    -0.85600
C707        C  0.26948520  0.69169627  0.19462662     1.02000
O708        O  0.23678880  0.67471758  0.18347594    -0.78500
O709        O  0.22090399  0.64302358  0.07873112    -0.78600
C710        C  0.21833356  0.64049834  0.02731829     1.02000
Cr711      Cr  0.24176597  0.71819406  0.01580974     1.93700
Cr712      Cr  0.28313501  0.74679270  0.12456611     1.93200
Cr713      Cr  0.20946969  0.67585787  0.12112077     1.39100
O714        O  0.24524805  0.71400738  0.08735078    -1.23700
C715        C  0.21800987  0.55577446  0.99461041     0.79600
N716        N  0.22080668  0.58449915  0.02301928    -0.78700
C717        C  0.21474204  0.60859596  0.99780930     0.82100
N718        N  0.20427669  0.60271091  0.94490723    -0.78600
C719        C  0.20077306  0.57379737  0.91653835     0.82200
N720        N  0.20796844  0.55056517  0.94149405    -0.80300
C721        C  0.24798162  0.86307921  0.00999082    -0.21900
C722        C  0.27011906  0.89240735  0.04396173    -0.09900
C723        C  0.29490806  0.88976194  0.07714256     0.28900
C724        C  0.29658556  0.85841473  0.07750466    -0.21900
C725        C  0.27402665  0.82884475  0.04459426    -0.10000
C726        C  0.24999879  0.83167824  0.00998946     0.28900
F727        F  0.22693140  0.80339769  0.97869415    -0.20500
H728        H  0.22851556  0.86412798  0.98427409     0.17300
H729        H  0.31510731  0.85695552  0.10486410     0.17300
F730        F  0.31652099  0.91682192  0.11152325    -0.20500
C731        C  0.06904269  0.66121077  0.05811748    -0.21900
C732        C  0.06846998  0.69074268  0.03664078    -0.09900
C733        C  0.10052823  0.71935049  0.01534558     0.28900
C734        C  0.13241403  0.71866150  0.01677665    -0.21900
C735        C  0.13326932  0.68965444  0.03962836    -0.10000
C736        C  0.10103085  0.66057707  0.05972410     0.28900
F737        F  0.10039000  0.63189546  0.08210465    -0.20500
H738        H  0.04481495  0.63883157  0.07498301     0.17300
H739        H  0.15676321  0.74152427  0.00124072     0.17300
F740        F  0.10153476  0.74866872  0.99483406    -0.20500
C741        C  0.06551151  0.85859200  0.07509719    -0.21900
C742        C  0.06168336  0.83122271  0.03921498    -0.09900
C743        C  0.08946774  0.83841830  0.00127299     0.28900
C744        C  0.12156806  0.87157087  0.00262751    -0.21900
C745        C  0.12638682  0.89774401  0.04194155    -0.10000
C746        C  0.09737346  0.89141993  0.07663222     0.28900
F747        F  0.10024051  0.91631145  0.11394338    -0.20500
H748        H  0.04427141  0.85398459  0.10407787     0.17300
H749        H  0.14347999  0.87580876  0.97538452     0.17300
F750        F  0.08688150  0.81263152  0.96610818    -0.20500
C751        C  0.25198311  0.67176419  0.29065994    -0.21900
C752        C  0.27909079  0.69321211  0.25251899    -0.09900
C753        C  0.31262421  0.71967975  0.27241579     0.28900
C754        C  0.32020593  0.72041427  0.32772931    -0.21900
C755        C  0.29563438  0.69296422  0.36253108    -0.10000
C756        C  0.25979259  0.67275134  0.34571458     0.28900
F757        F  0.23385348  0.64901333  0.38007786    -0.20500
H758        H  0.22483431  0.65320861  0.27777343     0.17300
H759        H  0.34706293  0.73920444  0.34109384     0.17300
F760        F  0.33836697  0.74410098  0.23859512    -0.20500
C761        C  0.25777903  0.58061843  0.31950784    -0.21900
C762        C  0.28611598  0.58495786  0.35247241    -0.09900
C763        C  0.30392125  0.56638190  0.33728174     0.28900
C764        C  0.29761563  0.54913876  0.28657395    -0.21900
C765        C  0.27280224  0.54915075  0.25043266    -0.10000
C766        C  0.25134665  0.56317655  0.26882746     0.28900
F767        F  0.22473024  0.56083913  0.23752753    -0.20500
H768        H  0.24257520  0.59349216  0.33035529     0.17300
H769        H  0.31315168  0.53672004  0.27494798     0.17300
F770        F  0.32974206  0.56755281  0.36921643    -0.20500
C771        C  0.41601449  0.71658796  0.27343528    -0.21900
C772        C  0.41740378  0.68773134  0.24917532    -0.09900
C773        C  0.41377731  0.66008272  0.28269523     0.28900
C774        C  0.40440278  0.65918426  0.33758143    -0.21900
C775        C  0.39548041  0.68409493  0.35879995    -0.10000
C776        C  0.40653424  0.71547049  0.32860927     0.28900
F777        F  0.40498939  0.74355305  0.35085487    -0.20500
H778        H  0.42242397  0.74000735  0.24986442     0.17300
H779        H  0.39850918  0.63577821  0.36078249     0.17300
F780        F  0.41744146  0.63281978  0.26185280    -0.20500
C781        C  0.42599321  0.55319568  0.42083964    -0.21900
C782        C  0.45242192  0.56016134  0.38063928    -0.09900
C783        C  0.44464454  0.53450785  0.33883286     0.28900
C784        C  0.41212585  0.00160648  0.33995856    -0.21900
C785        C  0.38699107  0.99365692  0.38283505    -0.10000
C786        C  0.39386996  0.02044624  0.42230424     0.28900
F787        F  0.37034895  0.01464435  0.46407321    -0.20500
H788        H  0.43087114  0.57251733  0.45315111     0.17300
H789        H  0.40757093  0.98164306  0.30891504     0.17300
F790        F  0.46932784  0.53996765  0.29913715    -0.20500
C791        C  0.42590782  0.82042721  0.40246151    -0.21900
C792        C  0.45592632  0.84441610  0.37118955    -0.09900
C793        C  0.45311295  0.86917864  0.33844530     0.28900
C794        C  0.42162150  0.87118216  0.33992408    -0.21900
C795        C  0.39199314  0.84794751  0.37292648    -0.10000
C796        C  0.39426786  0.82179761  0.40302389     0.28900
F797        F  0.36661658  0.79857543  0.43550492    -0.20500
H798        H  0.42732166  0.80115205  0.42809188     0.17300
H799        H  0.42074928  0.89149248  0.31617729     0.17300
F800        F  0.48149734  0.89292696  0.30768259    -0.20500
C801        C  0.12315935  0.51919951  0.38551823    -0.21900
C802        C  0.09424296  0.98805629  0.36339959    -0.09900
C803        C  0.06614435  0.99029323  0.33945703     0.28900
C804        C  0.06588283  0.52238995  0.34150171    -0.21900
C805        C  0.09387336  0.55299795  0.36659961    -0.10000
C806        C  0.12310826  0.55130647  0.38721545     0.28900
F807        F  0.15108728  0.58020643  0.41117482    -0.20500
H808        H  0.14543196  0.51852252  0.40356523     0.17300
H809        H  0.04319265  0.52296212  0.32484996     0.17300
F810        F  0.03807661  0.96121507  0.31615216    -0.20500
C811        C  0.07474454  0.72076109  0.66398036    -0.21900
C812        C  0.10520380  0.72964583  0.69510194    -0.09900
C813        C  0.12799396  0.71710305  0.67639236     0.28900
C814        C  0.12535656  0.70445631  0.62275184    -0.21900
C815        C  0.09934392  0.70309479  0.58768249    -0.10000
C816        C  0.07251812  0.70896245  0.61003371     0.28900
F817        F  0.04453372  0.70407834  0.57958790    -0.20500
H818        H  0.05487413  0.72717160  0.67870303     0.17300
H819        H  0.14466607  0.69718914  0.60799962     0.17300
F820        F  0.15536557  0.72102173  0.70753542    -0.20500
C821        C  0.21262674  0.86444629  0.66070878    -0.21900
C822        C  0.20738750  0.83584981  0.69369247    -0.09900
C823        C  0.22353596  0.81603798  0.67643736     0.28900
C824        C  0.23807255  0.82022602  0.62361997    -0.21900
C825        C  0.23762882  0.84479734  0.58739334    -0.10000
C826        C  0.22645570  0.86820029  0.60760156     0.28900
F827        F  0.22809747  0.89427733  0.57589689    -0.20500
H828        H  0.20252928  0.88175774  0.67348374     0.17300
H829        H  0.24865933  0.80332258  0.61053002     0.17300
F830        F  0.22223671  0.79031526  0.70867142    -0.20500
C831        C  0.07185633  0.81721384  0.60675513    -0.21900
C832        C  0.09966354  0.84823592  0.58250743    -0.09900
C833        C  0.12687133  0.87415320  0.61610375     0.28900
C834        C  0.12836647  0.86695725  0.67082105    -0.21900
C835        C  0.10436296  0.83295188  0.69223713    -0.10000
C836        C  0.07355002  0.81011895  0.66164782     0.28900
F837        F  0.04644097  0.77953798  0.68337225    -0.20500
H838        H  0.04876131  0.79844197  0.58327744     0.17300
H839        H  0.15106299  0.88641688  0.69432918     0.17300
F840        F  0.15301723  0.90591627  0.59571631    -0.20500
C841        C  0.26100179  0.72383294  0.74082538    -0.21900
C842        C  0.28956411  0.72774809  0.70721735    -0.09900
C843        C  0.28404430  0.69945472  0.67189515     0.28900
C844        C  0.25129509  0.66697258  0.67332991    -0.21900
C845        C  0.22380003  0.66222517  0.71020988    -0.10000
C846        C  0.22844010  0.69148146  0.74236864     0.28900
F847        F  0.20197069  0.68840976  0.77688592    -0.20500
H848        H  0.26446034  0.74541110  0.76789179     0.17300
H849        H  0.24836825  0.64478232  0.64829338     0.17300
F850        F  0.31124966  0.70200374  0.63971079    -0.20500
C851        C  0.40380614  0.65703797  0.67366717    -0.21900
C852        C  0.43072206  0.65502821  0.70199386    -0.09900
C853        C  0.45874339  0.68676487  0.72498198     0.28900
C854        C  0.45851322  0.71887959  0.72234157    -0.21900
C855        C  0.43050019  0.72044655  0.69684413    -0.10000
C856        C  0.40360170  0.68923263  0.67099376     0.28900
F857        F  0.37643308  0.68935509  0.64454552    -0.20500
H858        H  0.38209201  0.63331606  0.65485460     0.17300
H859        H  0.47980703  0.74237746  0.74228138     0.17300
F860        F  0.48582965  0.68674501  0.75182218    -0.20500
C861        C  0.25915963  0.48751523  0.72967892    -0.21900
C862        C  0.29052284  0.51345864  0.70335835    -0.09900
C863        C  0.28938059  0.53991660  0.67269814     0.28900
C864        C  0.25804842  0.54209452  0.67269850    -0.21900
C865        C  0.22720528  0.51737380  0.70212129    -0.10000
C866        C  0.22767759  0.48895315  0.72842099     0.28900
F867        F  0.19830351  0.96336093  0.75542274    -0.20500
H868        H  0.25936352  0.96661179  0.75276844     0.17300
H869        H  0.25838522  0.56389767  0.65144025     0.17300
F870        F  0.31925071  0.56519922  0.64622795    -0.20500
C871        C  0.46192790  0.88005701  0.00613293    -0.21900
C872        C  0.43565805  0.88706963  0.02793417    -0.09900
C873        C  0.40385189  0.87443786  0.99814649     0.28900
C874        C  0.40364276  0.86650112  0.94248927    -0.21900
C875        C  0.43374462  0.86753036  0.91754163    -0.10000
C876        C  0.46172713  0.87167903  0.95086883     0.28900
F877        F  0.48996281  0.86969387  0.92951027    -0.20500
H878        H  0.98571703  0.88692096  0.02916383     0.17300
H879        H  0.37994528  0.85937180  0.91905705     0.17300
F880        F  0.37451426  0.87346173  0.02125415    -0.20500
C881        C  0.02905723  0.52112423  0.97554370    -0.21900
C882        C  0.02972880  0.99728776  0.01322196    -0.09900
C883        C  0.05197198  0.98296034  0.00121504     0.28900
C884        C  0.07024148  0.98980648  0.95100950    -0.21900
C885        C  0.06684630  0.51105632  0.91158479    -0.10000
C886        C  0.04668123  0.52734638  0.92500900     0.28900
F887        F  0.04288930  0.54839418  0.88878250    -0.20500
H888        H  0.01232902  0.53277960  0.98279244     0.17300
H889        H  0.08656496  0.97778048  0.94268996     0.17300
F890        F  0.05424493  0.96047980  0.03647156    -0.20500
C891        C  0.39696150  0.95816854  0.98756452    -0.21900
C892        C  0.42111784  0.98296643  0.02580818    -0.09900
C893        C  0.43838817  0.51946585  0.01278368     0.28900
C894        C  0.43961845  0.52955636  0.95869850    -0.21900
C895        C  0.42169618  0.50361152  0.91750914    -0.10000
C896        C  0.39809590  0.96805454  0.93330953     0.28900
F897        F  0.37718524  0.94250025  0.89640756    -0.20500
H898        H  0.38083520  0.93034767  0.99728088     0.17300
H899        H  0.45562549  0.55762601  0.94897371     0.17300
F900        F  0.45891399  0.54484017  0.05020815    -0.20500
C901        C  0.56476577  0.07091781  0.66330803     0.79600
N902        N  0.56795694  0.07771663  0.60890696    -0.78700
C903        C  0.54300819  0.08212253  0.58338535     0.82100
N904        N  0.51462111  0.07934984  0.61264186    -0.78600
C905        C  0.51069334  0.07214970  0.66683098     0.82200
N906        N  0.53630255  0.06856558  0.69255151    -0.80300
C907        C  0.56641541  0.44146815  0.66550385     0.79600
N908        N  0.56968432  0.43903228  0.61030973    -0.78700
C909        C  0.54406430  0.41065810  0.58197406     0.82100
N910        N  0.51537680  0.38440392  0.60942013    -0.78600
C911        C  0.51167870  0.38621177  0.66428696     0.82200
N912        N  0.53746621  0.41482381  0.69255058    -0.80300
C913        C  0.94089027  0.47088311  0.05978324     0.79600
N914        N  0.92722640  0.43504743  0.06293728    -0.78700
C915        C  0.94891687  0.42084828  0.05997733     0.82100
N916        N  0.98497482  0.44354705  0.05715000    -0.78600
C917        C  0.49931191  0.47927302  0.05287466     0.82200
N918        N  0.47705491  0.99257930  0.05768878    -0.80300
O919        O  0.84818429  0.02290612  0.67751229    -0.85900
O920        O  0.90184610  0.09162728  0.69047403    -0.83000
C921        C  0.92780148  0.11956100  0.71026413     0.97500
O922        O  0.95087731  0.11704766  0.73768706    -0.83000
O923        O  0.91129307  0.08982543  0.83500451    -0.85700
C924        C  0.88690292  0.06674758  0.86596418     1.02000
O925        O  0.87058674  0.03371875  0.85412437    -0.78400
O926        O  0.83082198  0.01083133  0.76294774    -0.78600
C927        C  0.82493221  0.01557941  0.71481861     1.02000
O928        O  0.90044022  0.00043254  0.66667161    -0.85900
O929        O  0.95503119  0.07031837  0.66870391    -0.83000
C930        C  0.97886224  0.06908893  0.69620331     0.97500
O931        O  0.97553043  0.06612811  0.74750148    -0.83000
O932        O  0.94131126  0.04826219  0.85090852    -0.85600
C933        C  0.92374373  0.01529878  0.86045613     1.02000
O934        O  0.90397011  0.99398273  0.82413614    -0.78500
O935        O  0.86334181  0.46813120  0.73294708    -0.78600
C936        C  0.88095029  0.47072454  0.68958089     1.02000
Cr937      Cr  0.90162265  0.04598848  0.68189201     1.93700
Cr938      Cr  0.94190469  0.07729661  0.78884159     1.93200
Cr939      Cr  0.86986212  0.00470405  0.78984384     1.39100
O940        O  0.90407237  0.04238596  0.75376716    -1.23700
O941        O  0.90201866  0.25515875  0.68470659    -0.85900
O942        O  0.84893148  0.27066135  0.67747002    -0.83000
C943        C  0.82589761  0.25889229  0.71578454     0.97500
O944        O  0.83350546  0.27228812  0.76287519    -0.83000
O945        O  0.87524070  0.28533988  0.85002739    -0.85700
C946        C  0.88922443  0.26621245  0.85782221     1.02000
O947        O  0.91273230  0.26657015  0.82514649    -0.78400
O948        O  0.95272648  0.28068310  0.72638626    -0.78600
C949        C  0.92832731  0.25365227  0.70216550     1.02000
O950        O  0.95601485  0.33128175  0.66338930    -0.85900
O951        O  0.90090441  0.34506696  0.66339504    -0.83000
C952        C  0.88458734  0.35818141  0.68930085     0.97500
O953        O  0.87112332  0.34739627  0.73636697    -0.83000
O954        O  0.91284002  0.35970372  0.82618119    -0.85600
C955        C  0.93238571  0.35650243  0.86000273     1.02000
O956        O  0.94637697  0.33811882  0.84774272    -0.78500
O957        O  0.97804648  0.35533975  0.74356535    -0.78600
C958        C  0.98028176  0.35639393  0.69205596     1.02000
Cr959      Cr  0.90251270  0.30121992  0.67818073     1.93700
Cr960      Cr  0.87578333  0.31571820  0.78986402     1.93200
Cr961      Cr  0.94450518  0.31034632  0.78206801     1.39100
O962        O  0.90708342  0.30911447  0.75007635    -1.23700
O963        O  0.68099044  0.10313772  0.68176750    -0.85900
O964        O  0.69587352  0.04943772  0.69139535    -0.83000
C965        C  0.69581667  0.02247151  0.70950920     0.97500
O966        O  0.66866929  0.99952927  0.73558671    -0.83000
O967        O  0.68086649  0.03972839  0.83335949    -0.85700
C968        C  0.68120587  0.06363353  0.86479921     1.02000
O969        O  0.66160460  0.07694444  0.85601438    -0.78400
O970        O  0.67871989  0.11857507  0.76692010    -0.78600
C971        C  0.69254440  0.12612647  0.71981456     1.02000
O972        O  0.60653808  0.05140042  0.66542344    -0.85900
O973        O  0.62077786  0.99695868  0.66764049    -0.83000
C974        C  0.59491584  0.47258244  0.69511363     0.97500
O975        O  0.59409468  0.47467833  0.74674074    -0.83000
O976        O  0.60765671  0.00615288  0.85171236    -0.85600
C977        C  0.58738161  0.01868639  0.85941542     1.02000
O978        O  0.58749674  0.03991274  0.82522642    -0.78500
O979        O  0.60405112  0.08231488  0.73629980    -0.78600
C980        C  0.59309956  0.06779629  0.69008376     1.02000
Cr981      Cr  0.65027912  0.04987308  0.68269876     1.93700
Cr982      Cr  0.63793766  0.00809249  0.78835220     1.93200
Cr983      Cr  0.63359846  0.07683271  0.79239010     1.39100
O984        O  0.64071957  0.04543499  0.75442930    -1.23700
C985        C  0.87726220  0.43845143  0.66270024     0.79600
N986        N  0.88191213  0.41397485  0.68982087    -0.78700
C987        C  0.87964582  0.38524833  0.66202876     0.82100
N988        N  0.87111995  0.38038692  0.60825735    -0.78600
C989        C  0.86529217  0.40408015  0.58192887     0.82200
N990        N  0.86876756  0.43311280  0.60926650    -0.80300
C991        C  0.67787278  0.40818854  0.33186577     0.79600
N992        N  0.68374111  0.41752050  0.27855938    -0.78700
C993        C  0.71229975  0.41989187  0.25043099     0.82100
N994        N  0.73532642  0.41262174  0.27607135    -0.78600
C995        C  0.73002784  0.40341926  0.32969416     0.82200
N996        N  0.70155722  0.40180062  0.35788525    -0.80300
C997        C  0.54743097  0.21905813  0.32856269     0.79600
N998        N  0.04173340  0.21560665  0.27372340    -0.78700
C999        C  0.03922675  0.24105348  0.24618106     0.82100
N1000       N  0.04304451  0.27015443  0.27358430    -0.78600
C1001       C  0.54858905  0.27397376  0.32796170     0.82200
N1002       N  0.55001520  0.24795826  0.35604800    -0.80300
C1003       C  0.61924936  0.31687091  0.72907392     0.79600
N1004       N  0.65553092  0.33539925  0.73327778    -0.78700
C1005       C  0.67486431  0.31874071  0.72980551     0.82100
N1006       N  0.65688579  0.28250446  0.73015206    -0.78600
C1007       C  0.62053364  0.26296190  0.72857916     0.82200
N1008       N  0.60209663  0.28063375  0.72954804    -0.80300
O1009       O  0.51431212  0.35648163  0.34195241    -0.85900
O1010       O  0.56667034  0.42487302  0.35175547    -0.83000
C1011       C  0.59232519  0.45330107  0.37037044     0.97500
O1012       O  0.61620644  0.45197216  0.39683641    -0.83000
O1013       O  0.57569475  0.42569996  0.49549456    -0.85700
C1014       C  0.55205358  0.40206172  0.52701831     1.02000
O1015       O  0.53785411  0.36899356  0.51639102    -0.78400
O1016       O  0.99770203  0.34077837  0.42678866    -0.78600
C1017       C  0.99108566  0.34691710  0.37989256     1.02000
O1018       O  0.56754847  0.33496991  0.32982705    -0.85900
O1019       O  0.62145283  0.40479817  0.33127282    -0.83000
C1020       C  0.64584749  0.40535739  0.35996218     0.97500
O1021       O  0.64300252  0.40432730  0.41142910    -0.83000
O1022       O  0.61016467  0.38920085  0.51452301    -0.85600
C1023       C  0.59630998  0.35686078  0.52589134     1.02000
O1024       O  0.57600252  0.33326822  0.49222294    -0.78500
O1025       O  0.53594309  0.30294776  0.40060241    -0.78600
C1026       C  0.55127795  0.30571229  0.35492880     1.02000
Cr1027     Cr  0.56789553  0.38002394  0.34483175     1.93700
Cr1028     Cr  0.60826415  0.41460635  0.45069952     1.93200
Cr1029     Cr  0.53947193  0.33957447  0.45488412     1.39100
O1030       O  0.57143638  0.37762803  0.41693716    -1.23700
O1031       O  0.56454678  0.08654236  0.35841564    -0.85900
O1032       O  0.51200465  0.10184841  0.34942072    -0.83000
C1033       C  0.98899275  0.09167978  0.38768084     0.97500
O1034       O  0.99688499  0.10697649  0.43357148    -0.83000
O1035       O  0.53812714  0.11927450  0.52143670    -0.85700
C1036       C  0.55145301  0.09962973  0.53005137     1.02000
O1037       O  0.57483740  0.09922305  0.49784639    -0.78400
O1038       O  0.61545115  0.11227881  0.39945994    -0.78600
C1039       C  0.59121952  0.08548416  0.37482481     1.02000
O1040       O  0.61897176  0.16169993  0.33454110    -0.85900
O1041       O  0.56433541  0.17572131  0.33177292    -0.83000
C1042       C  0.55004104  0.19098490  0.35717426     0.97500
O1043       O  0.53747225  0.18216730  0.40524519    -0.83000
O1044       O  0.57832580  0.19356346  0.49595240    -0.85600
C1045       C  0.59702463  0.18997884  0.53095167     1.02000
O1046       O  0.61019589  0.17071412  0.51993720    -0.78500
O1047       O  0.64144488  0.18659141  0.41436944    -0.78600
C1048       C  0.64358547  0.18678545  0.36274235     1.02000
Cr1049     Cr  0.56552705  0.13228346  0.34966140     1.93700
Cr1050     Cr  0.54015069  0.14989152  0.46015824     1.93200
Cr1051     Cr  0.60749760  0.14238379  0.45418647     1.39100
O1052       O  0.57051493  0.14153324  0.42134710    -1.23700
O1053       O  0.84708495  0.43379015  0.35203126    -0.85900
O1054       O  0.85994696  0.37921406  0.36115058    -0.83000
C1055       C  0.85988562  0.35219704  0.37881078     0.97500
O1056       O  0.83207442  0.32867800  0.40282236    -0.83000
O1057       O  0.84547267  0.36997618  0.49941457    -0.85700
C1058       C  0.84589661  0.39399803  0.53057090     1.02000
O1059       O  0.82605142  0.40717861  0.52249021    -0.78400
O1060       O  0.83938448  0.44883190  0.43492442    -0.78600
C1061       C  0.85584599  0.45684012  0.38979652     1.02000
O1062       O  0.77246341  0.38440713  0.33189773    -0.85900
O1063       O  0.78360753  0.32746241  0.33646096    -0.83000
C1064       C  0.75820848  0.30273187  0.36453563     0.97500
O1065       O  0.75779273  0.30470459  0.41618932    -0.83000
O1066       O  0.77333525  0.33613851  0.52186038    -0.85600
C1067       C  0.75360148  0.34900373  0.53178820     1.02000
O1068       O  0.75124517  0.36831606  0.49663395    -0.78500
O1069       O  0.76466580  0.40935806  0.40641772    -0.78600
C1070       C  0.75692298  0.39842005  0.35771770     1.02000
Cr1071     Cr  0.81480433  0.38057766  0.35142930     1.93700
Cr1072     Cr  0.80207435  0.33799820  0.45636647     1.93200
Cr1073     Cr  0.79597203  0.40581218  0.46126138     1.39100
O1074       O  0.80421755  0.37532160  0.42283471    -1.23700
C1075       C  0.73000248  0.27091354  0.33567388     0.79600
N1076       N  0.70050191  0.24491054  0.36238707    -0.78700
C1077       C  0.67537719  0.21555788  0.33444267     0.82100
N1078       N  0.68020497  0.21215291  0.27998189    -0.78600
C1079       C  0.70966461  0.23786061  0.25329042     0.82200
N1080       N  0.73441438  0.26693767  0.28150744    -0.80300
C1081       C  0.84854845  0.05502847  0.00442559     0.79600
N1082       N  0.87492022  0.08424571  0.03079640    -0.78700
C1083       C  0.90390750  0.10952679  0.00191050     0.82100
N1084       N  0.90649285  0.10523846  0.94717749    -0.78600
C1085       C  0.88029995  0.07625474  0.92091978     0.82200
N1086       N  0.85170026  0.05126903  0.94987542    -0.80300
C1087       C  0.90354559  0.23967434  0.99227301     0.79600
N1088       N  0.90653104  0.24531807  0.93739067    -0.78700
C1089       C  0.88109118  0.24852852  0.91091367     0.82100
N1090       N  0.85240440  0.24540536  0.93948551    -0.78600
C1091       C  0.84908520  0.24004744  0.99400618     0.82200
N1092       N  0.87514153  0.23786966  0.02090044    -0.80300
C1093       C  0.80973375  0.17419221  0.39459675     0.79600
N1094       N  0.84598297  0.18952812  0.39606422    -0.78700
C1095       C  0.86188331  0.16947411  0.39209217     0.82100
N1096       N  0.84057560  0.13332722  0.39030555    -0.78600
C1097       C  0.80440139  0.11719422  0.38840017     0.82200
N1098       N  0.78940592  0.13793437  0.39301341    -0.80300
O1099       O  0.51911900  0.27166453  0.01003952    -0.85900
O1100       O  0.53411605  0.21881136  0.02221716    -0.83000
C1101       C  0.53527397  0.19268838  0.04082254     0.97500
O1102       O  0.50790084  0.16839065  0.06465668    -0.83000
O1103       O  0.52173029  0.20934003  0.16117764    -0.85700
C1104       C  0.52177413  0.23282054  0.19306550     1.02000
O1105       O  0.50257148  0.24664681  0.18423800    -0.78400
O1106       O  0.51752111  0.28715030  0.09522406    -0.78600
C1107       C  0.53096738  0.29469928  0.04804779     1.02000
O1108       O  0.94461324  0.21943019  0.99558333    -0.85900
O1109       O  0.95861168  0.16486683  0.00002208    -0.83000
C1110       C  0.93313683  0.14109562  0.02900575     0.97500
O1111       O  0.93337231  0.14395412  0.08036677    -0.83000
O1112       O  0.94965593  0.17673714  0.18253559    -0.85600
C1113       C  0.93054555  0.19021359  0.19273423     1.02000
O1114       O  0.92817011  0.20984059  0.15813457    -0.78500
O1115       O  0.94246938  0.25067587  0.06638580    -0.78600
C1116       C  0.93154779  0.23626315  0.01991137     1.02000
Cr1117     Cr  0.48841485  0.21821630  0.01274179     1.93700
Cr1118     Cr  0.97805857  0.17747225  0.11853836     1.93200
Cr1119     Cr  0.97314962  0.24603950  0.12221750     1.39100
O1120       O  0.97972286  0.21433926  0.08446674    -1.23700
O1121       O  0.73989028  0.42512021  0.02786376    -0.85900
O1122       O  0.68637400  0.43957115  0.01466532    -0.83000
C1123       C  0.66248351  0.42913657  0.05159123     0.97500
O1124       O  0.66915068  0.44389969  0.09791566    -0.83000
O1125       O  0.70901652  0.45811142  0.18846914    -0.85700
C1126       C  0.72246467  0.43871490  0.19815897     1.02000
O1127       O  0.74680506  0.43903158  0.16754531    -0.78400
O1128       O  0.78954966  0.45232810  0.07219360    -0.78600
C1129       C  0.76625675  0.42472540  0.04775377     1.02000
O1130       O  0.79301028  0.50084532  0.00499113    -0.85900
O1131       O  0.73747294  0.51383310  0.99780302    -0.83000
C1132       C  0.72184570  0.52819296  0.02235488     0.97500
O1133       O  0.70817512  0.51860231  0.06951853    -0.83000
O1134       O  0.74752533  0.03253004  0.16120158    -0.85600
C1135       C  0.76719310  0.03103726  0.19664485     1.02900
O1136       O  0.78005612  0.01116102  0.18843576    -0.78500
O1137       O  0.81391004  0.52672408  0.08485321    -0.78600
C1138       C  0.81687327  0.52646773  0.03334029     1.02000
Cr1139     Cr  0.73960106  0.47068065  0.01738113     1.93700
Cr1140     Cr  0.71111180  0.48765011  0.12559853     1.93200
Cr1141     Cr  0.77959266  0.48233712  0.12448749     1.39100
O1142       O  0.74289879  0.48022922  0.08902555    -1.23700
O1143       O  0.69628772  0.21781673  0.02659142    -0.85900
O1144       O  0.76399868  0.27157825  0.01408432    -0.83000
C1145       C  0.77269865  0.29421032  0.05248146     0.97500
O1146       O  0.77934055  0.28749046  0.09890608    -0.83000
O1147       O  0.75320643  0.24629233  0.18803733    -0.85700
C1148       C  0.71984726  0.23044866  0.19910139     1.02000
O1149       O  0.69684624  0.20615954  0.16803466    -0.78400
O1150       O  0.67046688  0.16749478  0.06980737    -0.78600
C1151       C  0.66825093  0.19156555  0.04541801     1.02000
O1152       O  0.71786339  0.16496652  0.00039171    -0.85900
O1153       O  0.78755034  0.22016995  0.99813565    -0.83000
C1154       C  0.81719953  0.23704947  0.02219603     0.97500
O1155       O  0.82002128  0.25226897  0.06801793    -0.83000
O1156       O  0.79192291  0.21145258  0.15924686    -0.85600
C1157       C  0.76947102  0.19169360  0.19469949     1.02000
O1158       O  0.73677654  0.17471177  0.18353375    -0.78500
O1159       O  0.72090353  0.14301588  0.07876765    -0.78600
C1160       C  0.71833755  0.14049487  0.02735253     1.02000
Cr1161     Cr  0.74177719  0.21819152  0.01584075     1.93700
Cr1162     Cr  0.78314257  0.24678530  0.12460231     1.93200
Cr1163     Cr  0.70947046  0.17585466  0.12115287     1.39100
O1164       O  0.74525622  0.21400225  0.08738373    -1.23700
C1165       C  0.71800104  0.05577084  0.99461249     0.79600
N1166       N  0.72080029  0.08449186  0.02303335    -0.78700
C1167       C  0.71474075  0.10859436  0.99783352     0.82100
N1168       N  0.70427821  0.10271881  0.94492900    -0.78600
C1169       C  0.70077432  0.07380901  0.91654822     0.82200
N1170       N  0.70796495  0.05057121  0.94149476    -0.80300
C1171       C  0.74802383  0.36308614  0.00997137    -0.21900
C1172       C  0.77015006  0.39240984  0.04395714    -0.09900
C1173       C  0.79493342  0.38976250  0.07714962     0.28900
C1174       C  0.79661068  0.35841514  0.07751680    -0.21900
C1175       C  0.77405669  0.32884656  0.04460101    -0.10000
C1176       C  0.75003996  0.33168459  0.00997639     0.28900
F1177       F  0.72698002  0.30340706  0.97866924    -0.20500
H1178       H  0.72856451  0.36413741  0.98424184     0.17300
H1179       H  0.81512600  0.35695385  0.10488753     0.17300
F1180       F  0.81653735  0.41681877  0.11154210    -0.20500
C1181       C  0.56905018  0.16121898  0.05806471    -0.21900
C1182       C  0.56849923  0.19078922  0.03669920    -0.09900
C1183       C  0.60057703  0.21942871  0.01551262     0.28900
C1184       C  0.63245645  0.21872626  0.01692971    -0.21900
C1185       C  0.63328739  0.18967558  0.03966374    -0.10000
C1186       C  0.60103211  0.16057163  0.05965688     0.28900
F1187       F  0.60036644  0.13184470  0.08191019    -0.20500
H1188       H  0.54480707  0.13881430  0.07484422     0.17300
H1189       H  0.65681974  0.24161204  0.00147973     0.17300
F1190       F  0.60160852  0.24878857  0.99512566    -0.20500
C1191       C  0.56552931  0.35859417  0.07523499    -0.21900
C1192       C  0.56168246  0.33123608  0.03931139    -0.09900
C1193       C  0.58944707  0.33844213  0.00132594     0.28900
C1194       C  0.62154592  0.37159460  0.00266645    -0.21900
C1195       C  0.62638443  0.39775802  0.04201114    -0.10000
C1196       C  0.59738986  0.39142331  0.07675493     0.28900
F1197       F  0.60027467  0.41630361  0.11410279    -0.20500
H1198       H  0.54430503  0.35397819  0.10425328     0.17300
H1199       H  0.64344219  0.37583952  0.97538286     0.17300
F1200       F  0.58684453  0.31266471  0.96612611    -0.20500
C1201       C  0.75197046  0.17174973  0.29073793    -0.21900
C1202       C  0.77907222  0.19321320  0.25259945    -0.09900
C1203       C  0.81259741  0.21969506  0.27250499     0.28900
C1204       C  0.82018773  0.22041769  0.32781324    -0.21900
C1205       C  0.79562738  0.19295380  0.36260459    -0.10000
C1206       C  0.75978472  0.17273472  0.34579259     0.28900
F1207       F  0.73385232  0.14899183  0.38015951    -0.20500
H1208       H  0.72482458  0.15318569  0.27784848     0.17300
H1209       H  0.84704268  0.23921485  0.34117947     0.17300
F1210       F  0.83832311  0.24414580  0.23869727    -0.20500
C1211       C  0.75778803  0.08062088  0.31952140    -0.21900
C1212       C  0.78614345  0.08496857  0.35245037    -0.09900
C1213       C  0.80396383  0.06641617  0.33720528     0.28900
C1214       C  0.79764756  0.04918564  0.28648743    -0.21900
C1215       C  0.77280560  0.04918101  0.25038803    -0.10000
C1216       C  0.75134160  0.06318637  0.26883192     0.28900
F1217       F  0.72469909  0.06083050  0.23757661    -0.20500
H1218       H  0.74257363  0.09347724  0.33040990     0.17300
H1219       H  0.81319367  0.03678373  0.27482480     0.17300
F1220       F  0.82980418  0.06759323  0.36909984    -0.20500
C1221       C  0.91598889  0.21657715  0.27342966    -0.21900
C1222       C  0.91737852  0.18771947  0.24917273    -0.09900
C1223       C  0.91377042  0.16008154  0.28270101     0.28900
C1224       C  0.90441973  0.15919688  0.33759596    -0.21900
C1225       C  0.89549217  0.18410375  0.35881480    -0.10000
C1226       C  0.90652711  0.21547039  0.32861103     0.28900
F1227       F  0.90497901  0.24355250  0.35085301    -0.20500
H1228       H  0.92238495  0.23998974  0.24985126     0.17300
H1229       H  0.89854200  0.13579915  0.36080667     0.17300
F1230       F  0.91743188  0.13281637  0.26186117    -0.20500
C1231       C  0.92601235  0.05314120  0.42088771    -0.21900
C1232       C  0.95242784  0.06010786  0.38066363    -0.09900
C1233       C  0.94464335  0.03444708  0.33886548     0.28900
C1234       C  0.91213121  0.50166330  0.33991567    -0.21900
C1235       C  0.88698776  0.49370741  0.38278085    -0.10000
C1236       C  0.89384766  0.52050058  0.42223481     0.28900
F1237       F  0.87030547  0.51470098  0.46397061    -0.20500
H1238       H  0.93089810  0.07246276  0.45320255     0.17300
H1239       H  0.90758721  0.48170178  0.30887485     0.17300
F1240       F  0.96932093  0.03989776  0.29916466    -0.20500
C1241       C  0.92595373  0.32049561  0.40253002    -0.21900
C1242       C  0.95593963  0.34440720  0.37112945    -0.09900
C1243       C  0.95308971  0.36908779  0.33823364     0.28900
C1244       C  0.92160324  0.37110465  0.33971067    -0.21900
C1245       C  0.89201679  0.34795936  0.37285873    -0.10000
C1246       C  0.89432243  0.32187894  0.40309687     0.28900
F1247       F  0.86671620  0.29874951  0.43573125    -0.20500
H1248       H  0.92739051  0.30127783  0.42826733     0.17300
H1249       H  0.92070147  0.39135411  0.31584404     0.17300
F1250       F  0.98143290  0.39274395  0.30731017    -0.20500
C1251       C  0.62312736  0.01918452  0.38575080    -0.21900
C1252       C  0.59420560  0.48803421  0.36338169    -0.09900
C1253       C  0.56602152  0.49022453  0.33965466     0.28900
C1254       C  0.56600980  0.02246174  0.34130002    -0.21900
C1255       C  0.59392558  0.05302929  0.36659815    -0.10000
C1256       C  0.62308370  0.05129489  0.38743879     0.28900
F1257       F  0.65098387  0.08015029  0.41161919    -0.20500
H1258       H  0.64533394  0.01847340  0.40397456     0.17300
H1259       H  0.54338279  0.02306928  0.32446850     0.17300
F1260       F  0.53786951  0.46110113  0.31659088    -0.20500
C1261       C  0.57470694  0.22065987  0.66405645    -0.21900
C1262       C  0.60517109  0.22954478  0.69516427    -0.09900
C1263       C  0.62795049  0.21699176  0.67644787     0.28900
C1264       C  0.62531069  0.20435569  0.62279994    -0.21900
C1265       C  0.59931125  0.20302429  0.58773068    -0.10000
C1266       C  0.57248984  0.20889460  0.61009262     0.28900
F1267       F  0.54452410  0.20405356  0.57964041    -0.20500
H1268       H  0.55483480  0.22706146  0.67879886     0.17300
H1269       H  0.64461382  0.19708212  0.60803967     0.17300
F1270       F  0.65532100  0.22090202  0.70758545    -0.20500
C1271       C  0.71258586  0.36437884  0.66064671    -0.21900
C1272       C  0.70736958  0.33579086  0.69363117    -0.09900
C1273       C  0.72354550  0.31600390  0.67638319     0.28900
C1274       C  0.73810494  0.32021664  0.62357739    -0.21900
C1275       C  0.73764601  0.34478086  0.58735175    -0.10000
C1276       C  0.72642698  0.36814953  0.60754707     0.28900
F1277       F  0.72803308  0.39420717  0.57583543    -0.20500
H1278       H  0.70246201  0.38166962  0.67341297     0.17300
H1279       H  0.74872115  0.30333721  0.61049430     0.17300
F1280       F  0.72226089  0.29028749  0.70861559    -0.20500
C1281       C  0.57186689  0.31715007  0.60668939    -0.21900
C1282       C  0.59965866  0.34820468  0.58249100    -0.09900
C1283       C  0.62684660  0.37411120  0.61612457     0.28900
C1284       C  0.62833345  0.36688393  0.67083044    -0.21900
C1285       C  0.60434388  0.33285943  0.69219935    -0.10000
C1286       C  0.57355383  0.31002142  0.66156760     0.28900
F1287       F  0.54645522  0.27941281  0.68323812    -0.20500
H1288       H  0.54878771  0.29837726  0.58318355     0.17300
H1289       H  0.65101412  0.38634158  0.69436828     0.17300
F1290       F  0.65298388  0.40589436  0.59578341    -0.20500
C1291       C  0.76101143  0.22385890  0.74079776    -0.21900
C1292       C  0.78957333  0.22777271  0.70719073    -0.09900
C1293       C  0.78405124  0.19948033  0.67186413     0.28900
C1294       C  0.75130311  0.16699754  0.67330306    -0.21900
C1295       C  0.72381036  0.16224846  0.71018940    -0.10000
C1296       C  0.72844957  0.19150694  0.74234280     0.28900
F1297       F  0.70197989  0.18843718  0.77685725    -0.20500
H1298       H  0.76447083  0.24543780  0.76786333     0.17300
H1299       H  0.74837619  0.14480773  0.64826533     0.17300
F1300       F  0.81125415  0.20203014  0.63967235    -0.20500
C1301       C  0.90377512  0.15700341  0.67366782    -0.21900
C1302       C  0.93071133  0.15499905  0.70194337    -0.09900
C1303       C  0.95874470  0.18673929  0.72490286     0.28900
C1304       C  0.95850981  0.21885293  0.72228158    -0.21900
C1305       C  0.93048109  0.22041641  0.69682881    -0.10000
C1306       C  0.90356569  0.18919654  0.67101345     0.28900
F1307       F  0.87637631  0.18931152  0.64461815    -0.20500
H1308       H  0.88204941  0.13327837  0.65488129     0.17300
H1309       H  0.97981646  0.24235446  0.74219461     0.17300
F1310       F  0.98585129  0.18672501  0.75169008    -0.20500
C1311       C  0.75915633  0.98749215  0.72957157    -0.21900
C1312       C  0.79052433  0.01345030  0.70328029    -0.09900
C1313       C  0.78939198  0.03993038  0.67266835     0.28900
C1314       C  0.75806246  0.04211260  0.67268684    -0.21900
C1315       C  0.72721489  0.01737845  0.70208784    -0.10000
C1316       C  0.72767862  0.98893905  0.72834026     0.28900
F1317       F  0.69830440  0.46338240  0.75551647    -0.20500
H1318       H  0.75937114  0.46664877  0.75290800     0.17300
H1319       H  0.75840663  0.06393204  0.65146811     0.17300
F1320       F  0.81927100  0.06523236  0.64624062    -0.20500
C1321       C  0.96199006  0.38010016  0.00610627    -0.21900
C1322       C  0.93571641  0.38710872  0.02790577    -0.09900
C1323       C  0.90390877  0.37447095  0.99812041     0.28900
C1324       C  0.90369402  0.36651993  0.94246909    -0.21900
C1325       C  0.93379015  0.36753694  0.91752407    -0.10000
C1326       C  0.96177487  0.37169080  0.95085179     0.28900
F1327       F  0.98999767  0.36967878  0.92950225    -0.20500
H1328       H  0.48578258  0.38697280  0.02913352     0.17300
H1329       H  0.87999500  0.35938699  0.91903945     0.17300
F1330       F  0.87457063  0.37349452  0.02122527    -0.20500
C1331       C  0.52901288  0.02107899  0.97548642    -0.21900
C1332       C  0.52977187  0.49733215  0.01327841    -0.09900
C1333       C  0.55201397  0.48300363  0.00127078     0.28900
C1334       C  0.57026905  0.48983466  0.95105471    -0.21900
C1335       C  0.56682736  0.01103744  0.91154582    -0.10000
C1336       C  0.54664607  0.02731109  0.92495921     0.28900
F1337       F  0.54284825  0.04835343  0.88872930    -0.20500
H1338       H  0.51227975  0.03272903  0.98272935     0.17300
H1339       H  0.58658584  0.47780166  0.94273073     0.17300
F1340       F  0.55429212  0.46052909  0.03653338    -0.20500
C1341       C  0.89698010  0.45818138  0.98761007    -0.21900
C1342       C  0.92114016  0.48298630  0.02585567    -0.09900
C1343       C  0.93837262  0.01944651  0.01272412     0.28900
C1344       C  0.93959697  0.02952743  0.95863874    -0.21900
C1345       C  0.92167037  0.00358326  0.91745571    -0.10000
C1346       C  0.89812579  0.46808235  0.93335280     0.28900
F1347       F  0.87722103  0.44252891  0.89644396    -0.20500
H1348       H  0.88088071  0.43041301  0.99730318     0.17300
H1349       H  0.95561606  0.05761049  0.94890110     0.17300
F1350       F  0.95890901  0.04482310  0.05013772    -0.20500
C1351       C  0.56474860  0.57091325  0.66333933     0.79600
N1352       N  0.56794040  0.57772336  0.60894222    -0.78700
C1353       C  0.54300348  0.58215630  0.58343683     0.82100
N1354       N  0.51462644  0.57939743  0.61270405    -0.78600
C1355       C  0.51069654  0.57218378  0.66688867     0.82200
N1356       N  0.53629494  0.56857428  0.69259449    -0.80300
C1357       C  0.56643095  0.94146825  0.66550833     0.79600
N1358       N  0.56969758  0.93902300  0.61031484    -0.78700
C1359       C  0.54407296  0.91064687  0.58198604     0.82100
N1360       N  0.51538366  0.88439942  0.60943885    -0.78600
C1361       C  0.51168506  0.88621688  0.66430445     0.82200
N1362       N  0.53747742  0.91483098  0.69256091    -0.80300
C1363       C  0.94086170  0.97086560  0.05975314     0.79600
N1364       N  0.92718926  0.93502873  0.06292799    -0.78700
C1365       C  0.94887302  0.92082189  0.05997590     0.82100
N1366       N  0.98493232  0.94351375  0.05712583    -0.78600
C1367       C  0.49927594  0.97923945  0.05283307     0.82200
N1368       N  0.47708363  0.49260508  0.05772626    -0.80300
O1369       O  0.84819009  0.52293971  0.67757613    -0.85900
O1370       O  0.90184632  0.59165420  0.69055075    -0.83000
C1371       C  0.92780455  0.61958874  0.71033136     0.97500
O1372       O  0.95087885  0.61707517  0.73775527    -0.83000
O1373       O  0.91127459  0.58983150  0.83505280    -0.85700
C1374       C  0.88688895  0.56674581  0.86600943     1.02000
O1375       O  0.87058851  0.53371657  0.85417185    -0.78400
O1376       O  0.83082062  0.51080999  0.76300024    -0.78600
C1377       C  0.82493343  0.51558612  0.71488370     1.02000
O1378       O  0.90044355  0.50046204  0.66668785    -0.85900
O1379       O  0.95503540  0.57035025  0.66876706    -0.83000
C1380       C  0.97886915  0.56912543  0.69626700     0.97500
O1381       O  0.97554136  0.56616817  0.74756653    -0.83000
O1382       O  0.94131971  0.54829608  0.85097442    -0.85600
C1383       C  0.92376988  0.51533203  0.86051170     1.02000
O1384       O  0.90400952  0.49401425  0.82418121    -0.78500
O1385       O  0.86330020  0.96811766  0.73290671    -0.78600
C1386       C  0.88092573  0.97070039  0.68956552     1.02000
Cr1387     Cr  0.90162667  0.54601770  0.68194838     1.93700
Cr1388     Cr  0.94190482  0.57732220  0.78890288     1.93200
Cr1389     Cr  0.86988177  0.50471027  0.78988997     1.39100
O1390       O  0.90407994  0.54240488  0.75382018    -1.23700
O1391       O  0.90202301  0.75517210  0.68472310    -0.85900
O1392       O  0.84891931  0.77065049  0.67749120    -0.83000
C1393       C  0.82588626  0.75887232  0.71580766     0.97500
O1394       O  0.83349200  0.77226584  0.76289892    -0.83000
O1395       O  0.87522931  0.78533699  0.85004200    -0.85700
C1396       C  0.88921718  0.76621271  0.85782612     1.02000
O1397       O  0.91273041  0.76658131  0.82515243    -0.78400
O1398       O  0.95273082  0.78070911  0.72640432    -0.78600
C1399       C  0.92833724  0.75367587  0.70218009     1.02000
O1400       O  0.95600610  0.83129883  0.66341062    -0.85900
O1401       O  0.90088256  0.84506125  0.66342655    -0.83000
C1402       C  0.88455174  0.85816125  0.68932862     0.97500
O1403       O  0.87107951  0.84736830  0.73638666    -0.83000
O1404       O  0.91280055  0.85969962  0.82619569    -0.85600
C1405       C  0.93234999  0.85650550  0.86001761     1.02000
O1406       O  0.94635198  0.83813122  0.84775729    -0.78500
O1407       O  0.97803573  0.85536050  0.74358634    -0.78600
C1408       C  0.98027694  0.85640915  0.69207675     1.02000
Cr1409     Cr  0.90250219  0.80122346  0.67820139     1.93700
Cr1410     Cr  0.87575781  0.81570572  0.78988221     1.93200
Cr1411     Cr  0.94449678  0.81036346  0.78208573     1.39100
O1412       O  0.90706958  0.80911855  0.75009463    -1.23700
O1413       O  0.68096744  0.60312320  0.68177338    -0.85900
O1414       O  0.69585767  0.54942640  0.69139870    -0.83000
C1415       C  0.69580105  0.52246039  0.70951511     0.97500
O1416       O  0.66864811  0.49951278  0.73557662    -0.83000
O1417       O  0.68085466  0.53970730  0.83335618    -0.85700
C1418       C  0.68119688  0.56361352  0.86479660     1.02000
O1419       O  0.66159270  0.57692198  0.85601905    -0.78400
O1420       O  0.67870989  0.61855184  0.76693462    -0.78600
C1421       C  0.69253027  0.62610621  0.71982747     1.02000
O1422       O  0.60651328  0.55138186  0.66543855    -0.85900
O1423       O  0.62076484  0.49694788  0.66764663    -0.83000
C1424       C  0.59493271  0.97259014  0.69511114     0.97500
O1425       O  0.59411384  0.97468948  0.74673784    -0.83000
O1426       O  0.60764632  0.50613949  0.85172383    -0.85600
C1427       C  0.58737769  0.51868029  0.85943513     1.02000
O1428       O  0.58748471  0.53989713  0.82523651    -0.78500
O1429       O  0.60404043  0.58230304  0.73631621    -0.78600
C1430       C  0.59308055  0.56778200  0.69010410     1.02000
Cr1431     Cr  0.65026023  0.54985910  0.68270458     1.93700
Cr1432     Cr  0.63792110  0.50807479  0.78835371     1.93200
Cr1433     Cr  0.63358618  0.57681514  0.79240140     1.39100
O1434       O  0.64070358  0.54541837  0.75443558    -1.23700
C1435       C  0.87722801  0.93842229  0.66270679     0.79600
N1436       N  0.88187637  0.91394966  0.68983882    -0.78700
C1437       C  0.87960327  0.88521820  0.66205652     0.82100
N1438       N  0.87107321  0.88034763  0.60828874    -0.78600
C1439       C  0.86524872  0.90403912  0.58195315     0.82200
N1440       N  0.86873064  0.93307713  0.60927689    -0.80300
C1441       C  0.67786110  0.90817557  0.33185538     0.79600
N1442       N  0.68374224  0.91752347  0.27855602    -0.78700
C1443       C  0.71231298  0.91991231  0.25044058     0.82100
N1444       N  0.73533853  0.91264230  0.27608698    -0.78600
C1445       C  0.73002593  0.90342224  0.32970354     0.82200
N1446       N  0.70154389  0.90178786  0.35788134    -0.80300
C1447       C  0.54746327  0.71907086  0.32852442     0.79600
N1448       N  0.04177511  0.71562256  0.27368052    -0.78700
C1449       C  0.03925776  0.74106480  0.24613862     0.82100
N1450       N  0.04305528  0.77015615  0.27354878    -0.78600
C1451       C  0.54858752  0.77397042  0.32792966     0.82200
N1452       N  0.55002513  0.74796040  0.35601218    -0.80300
C1453       C  0.61926655  0.81695257  0.72909089     0.79600
N1454       N  0.65554820  0.83547671  0.73330779    -0.78700
C1455       C  0.67487684  0.81881219  0.72985831     0.82100
N1456       N  0.65689209  0.78257641  0.73020318    -0.78600
C1457       C  0.62054263  0.76303917  0.72857294     0.82200
N1458       N  0.60210986  0.78071450  0.72953505    -0.80300
O1459       O  0.51429555  0.85651481  0.34198606    -0.85900
O1460       O  0.56667471  0.92488874  0.35176298    -0.83000
C1461       C  0.59233935  0.95331010  0.37037474     0.97500
O1462       O  0.61621246  0.95196381  0.39683180    -0.83000
O1463       O  0.57569025  0.92568639  0.49549338    -0.85700
C1464       C  0.55205057  0.90204811  0.52702138     1.02000
O1465       O  0.53784224  0.86897867  0.51638855    -0.78400
O1466       O  0.99767664  0.84072740  0.42679676    -0.78600
C1467       C  0.99106595  0.84691028  0.37992643     1.02000
O1468       O  0.56749057  0.83495386  0.32978745    -0.85900
O1469       O  0.62142984  0.90476714  0.33125243    -0.83000
C1470       C  0.64582876  0.90533436  0.35994409     0.97500
O1471       O  0.64298675  0.90430839  0.41141123    -0.83000
O1472       O  0.61016408  0.88920072  0.51450777    -0.85600
C1473       C  0.59631150  0.85686615  0.52589635     1.02000
O1474       O  0.57600348  0.83326418  0.49224037    -0.78500
O1475       O  0.53595811  0.80293352  0.40061122    -0.78600
C1476       C  0.55125887  0.80570053  0.35490532     1.02000
Cr1477     Cr  0.56787293  0.88002257  0.34482906     1.93700
Cr1478     Cr  0.60825616  0.91459316  0.45068730     1.93200
Cr1479     Cr  0.53946694  0.83955569  0.45488722     1.39100
O1480       O  0.57142280  0.87761543  0.41693227    -1.23700
O1481       O  0.56450707  0.58652669  0.35845704    -0.85900
O1482       O  0.51200420  0.60190338  0.34942326    -0.83000
C1483       C  0.98899239  0.59171918  0.38768614     0.97500
O1484       O  0.99689112  0.60698664  0.43359837    -0.83000
O1485       O  0.53813851  0.61931753  0.52147621    -0.85700
C1486       C  0.55144912  0.59966004  0.53009954     1.02000
O1487       O  0.57481957  0.59923186  0.49789082    -0.78400
O1488       O  0.61541323  0.61223916  0.39950600    -0.78600
C1489       C  0.59117509  0.58545478  0.37485810     1.02000
O1490       O  0.61897914  0.66165580  0.33455757    -0.85900
O1491       O  0.56439602  0.67575369  0.33177613    -0.83000
C1492       C  0.55007393  0.69100037  0.35714805     0.97500
O1493       O  0.53747538  0.68216648  0.40520330    -0.83000
O1494       O  0.57834805  0.69359558  0.49590968    -0.85600
C1495       C  0.59704653  0.69001915  0.53092010     1.02000
O1496       O  0.61020340  0.67073688  0.51993728    -0.78500
O1497       O  0.64144972  0.68656624  0.41437407    -0.78600
C1498       C  0.64359262  0.68674682  0.36274831     1.02000
Cr1499     Cr  0.56553245  0.63228821  0.34967732     1.93700
Cr1500     Cr  0.54016028  0.64991204  0.46015770     1.93200
Cr1501     Cr  0.60748980  0.64237615  0.45421170     1.39100
O1502       O  0.57051792  0.64153876  0.42136144    -1.23700
O1503       O  0.84704732  0.93375654  0.35206317    -0.85900
O1504       O  0.85991331  0.87918829  0.36122183    -0.83000
C1505       C  0.85985397  0.85217114  0.37887726     0.97500
O1506       O  0.83203988  0.82864413  0.40287418    -0.83000
O1507       O  0.84542103  0.86992811  0.49945680    -0.85700
C1508       C  0.84584901  0.89395245  0.53060756     1.02000
O1509       O  0.82600636  0.90713495  0.52253032    -0.78400
O1510       O  0.83938436  0.94879047  0.43497884    -0.78600
C1511       C  0.85583515  0.95679898  0.38984377     1.02000
O1512       O  0.77242848  0.88436718  0.33192998    -0.85900
O1513       O  0.78358956  0.82743110  0.33649516    -0.83000
C1514       C  0.75818626  0.80269838  0.36455779     0.97500
O1515       O  0.75775392  0.80467074  0.41621048    -0.83000
O1516       O  0.77327767  0.83610652  0.52188426    -0.85600
C1517       C  0.75356111  0.84899234  0.53181572     1.02000
O1518       O  0.75121093  0.86830638  0.49665617    -0.78500
O1519       O  0.76466781  0.90936322  0.40642766    -0.78600
C1520       C  0.75691127  0.89840976  0.35773502     1.02000
Cr1521     Cr  0.81477218  0.88054441  0.35147001     1.93700
Cr1522     Cr  0.80202722  0.83795926  0.45640342     1.93200
Cr1523     Cr  0.79594913  0.90578888  0.46129245     1.39100
O1524       O  0.80417912  0.87528672  0.42287120    -1.23700
C1525       C  0.72999445  0.77087960  0.33568538     0.79600
N1526       N  0.70049910  0.74486937  0.36239308    -0.78700
C1527       C  0.67538182  0.71551612  0.33444563     0.82100
N1528       N  0.68020938  0.71211827  0.27998222    -0.78600
C1529       C  0.70966506  0.73783528  0.25329368     0.82200
N1530       N  0.73440989  0.76691248  0.28151687    -0.80300
C1531       C  0.84853855  0.55501862  0.00447105     0.79600
N1532       N  0.87490782  0.58423628  0.03084185    -0.78700
C1533       C  0.90388884  0.60951888  0.00195078     0.82100
N1534       N  0.90647086  0.60523254  0.94721789    -0.78600
C1535       C  0.88028094  0.57624825  0.92096226     0.82200
N1536       N  0.85168667  0.55125938  0.94992004    -0.80300
C1537       C  0.90353018  0.73965942  0.99226333     0.79600
N1538       N  0.90651820  0.74530663  0.93738229    -0.78700
C1539       C  0.88107988  0.74851855  0.91090475     0.82100
N1540       N  0.85239235  0.74539449  0.93947206    -0.78600
C1541       C  0.84907121  0.74003784  0.99399077     0.82200
N1542       N  0.87512554  0.73785700  0.02088935    -0.80300
C1543       C  0.80972753  0.67420212  0.39455058     0.79600
N1544       N  0.84597536  0.68953131  0.39602970    -0.78700
C1545       C  0.86186948  0.66947166  0.39206982     0.82100
N1546       N  0.84055635  0.63332521  0.39029209    -0.78600
C1547       C  0.80438224  0.61719752  0.38839123     0.82200
N1548       N  0.78939311  0.63794444  0.39298079    -0.80300
O1549       O  0.51912556  0.77164039  0.00997622    -0.85900
O1550       O  0.53409539  0.71877220  0.02216442    -0.83000
C1551       C  0.53524968  0.69264847  0.04077393     0.97500
O1552       O  0.50788162  0.66836220  0.06463196    -0.83000
O1553       O  0.52175543  0.70934461  0.16113436    -0.85700
C1554       C  0.52180757  0.73283219  0.19301649     1.02000
O1555       O  0.50260944  0.74666385  0.18418351    -0.78400
O1556       O  0.51752130  0.78715107  0.09514571    -0.78600
C1557       C  0.53096952  0.79468655  0.04796837     1.02000
O1558       O  0.94460677  0.71942401  0.99556068    -0.85900
O1559       O  0.95858600  0.66484902  0.00002911    -0.83000
C1560       C  0.93311914  0.64108655  0.02903231     0.97500
O1561       O  0.93336731  0.64395246  0.08039273    -0.83000
O1562       O  0.94969100  0.67675738  0.18254517    -0.85600
C1563       C  0.93057820  0.69023059  0.19274204     1.02000
O1564       O  0.92819534  0.70985021  0.15813783    -0.78500
O1565       O  0.94245747  0.75065826  0.06637430    -0.78600
C1566       C  0.93153560  0.73624906  0.01989832     1.02000
Cr1567     Cr  0.48840365  0.71819559  0.01271026     1.93700
Cr1568     Cr  0.97806772  0.67747213  0.11852770     1.93200
Cr1569     Cr  0.97316294  0.74604146  0.12218326     1.39100
O1570       O  0.97972828  0.71433429  0.08444038    -1.23700
O1571       O  0.73987475  0.92512837  0.02784716    -0.85900
O1572       O  0.68637077  0.93959786  0.01461833    -0.83000
C1573       C  0.66248097  0.92912484  0.05154953     0.97500
O1574       O  0.66914485  0.94385579  0.09789788    -0.83000
O1575       O  0.70901166  0.95811512  0.18846465    -0.85700
C1576       C  0.72247715  0.93873650  0.19816729     1.02000
O1577       O  0.74682253  0.93906256  0.16755539    -0.78400
O1578       O  0.78953475  0.95233223  0.07218205    -0.78600
C1579       C  0.76623582  0.92472847  0.04774832     1.02000
O1580       O  0.79301533  0.00084686  0.00496007    -0.85900
O1581       O  0.73749476  0.01385798  0.99780361    -0.83000
C1582       C  0.72183253  0.02818557  0.02234286     0.97500
O1583       O  0.70812512  0.01855960  0.06948009    -0.83000
O1584       O  0.74757637  0.53253618  0.16121522    -0.85600
C1585       C  0.76721164  0.53101609  0.19668603     1.02900
O1586       O  0.78005382  0.51112097  0.18849225    -0.78500
O1587       O  0.81390779  0.02674225  0.08480824    -0.78600
C1588       C  0.81687729  0.02647758  0.03329789     1.02000
Cr1589     Cr  0.73960179  0.97069461  0.01735868     1.93700
Cr1590     Cr  0.71108559  0.98763000  0.12557753     1.93200
Cr1591     Cr  0.77959371  0.98235919  0.12446291     1.39100
O1592       O  0.74289246  0.98023632  0.08900608    -1.23700
O1593       O  0.69627344  0.71781636  0.02656082    -0.85900
O1594       O  0.76398905  0.77158430  0.01406119    -0.83000
C1595       C  0.77267549  0.79421114  0.05246573     0.97500
O1596       O  0.77931267  0.78748909  0.09889175    -0.83000
O1597       O  0.75320496  0.74628587  0.18802177    -0.85700
C1598       C  0.71984651  0.73043827  0.19909231     1.02000
O1599       O  0.69684501  0.70615660  0.16801723    -0.78400
O1600       O  0.67046274  0.66749736  0.06978729    -0.78600
C1601       C  0.66824006  0.69156214  0.04539203     1.02000
O1602       O  0.71785142  0.66496627  0.00035730    -0.85900
O1603       O  0.78753731  0.72016582  0.99811317    -0.83000
C1604       C  0.81718763  0.73705143  0.02216959     0.97500
O1605       O  0.82001268  0.75229200  0.06797203    -0.83000
O1606       O  0.79193149  0.71146230  0.15917512    -0.85600
C1607       C  0.76948533  0.69169626  0.19462655     1.02000
O1608       O  0.73678891  0.67471760  0.18347597    -0.78500
O1609       O  0.72090408  0.64302359  0.07873117    -0.78600
C1610       C  0.71833357  0.64049829  0.02731838     1.02000
Cr1611     Cr  0.74176584  0.71819397  0.01580976     1.93700
Cr1612     Cr  0.78313501  0.74679265  0.12456608     1.93200
Cr1613     Cr  0.70946971  0.67585786  0.12112081     1.39100
O1614       O  0.74524799  0.71400736  0.08735079    -1.23700
C1615       C  0.71800998  0.55577448  0.99461037     0.79600
N1616       N  0.72080678  0.58449915  0.02301928    -0.78700
C1617       C  0.71474213  0.60859596  0.99780933     0.82100
N1618       N  0.70427678  0.60271092  0.94490727    -0.78600
C1619       C  0.70077314  0.57379739  0.91653835     0.82200
N1620       N  0.70796852  0.55056517  0.94149401    -0.80300
C1621       C  0.74798153  0.86307918  0.00999110    -0.21900
C1622       C  0.77011903  0.89240735  0.04396190    -0.09900
C1623       C  0.79490808  0.88976195  0.07714266     0.28900
C1624       C  0.79658552  0.85841472  0.07750483    -0.21900
C1625       C  0.77402659  0.82884471  0.04459449    -0.10000
C1626       C  0.74999874  0.83167822  0.00998974     0.28900
F1627       F  0.72693141  0.80339766  0.97869446    -0.20500
H1628       H  0.72851546  0.86412793  0.98427441     0.17300
H1629       H  0.81510723  0.85695547  0.10486446     0.17300
F1630       F  0.81652083  0.91682186  0.11152358    -0.20500
C1631       C  0.56904256  0.66121066  0.05811774    -0.21900
C1632       C  0.56846989  0.69074261  0.03664108    -0.09900
C1633       C  0.60052811  0.71935031  0.01534567     0.28900
C1634       C  0.63241389  0.71866130  0.01677673    -0.21900
C1635       C  0.63326919  0.68965428  0.03962858    -0.10000
C1636       C  0.60103072  0.66057692  0.05972440     0.28900
F1637       F  0.60038989  0.63189530  0.08210498    -0.20500
H1638       H  0.54481476  0.63883149  0.07498325     0.17300
H1639       H  0.65676306  0.74152401  0.00124064     0.17300
F1640       F  0.60153468  0.74866851  0.99483400    -0.20500
C1641       C  0.56551157  0.85859196  0.07509752    -0.21900
C1642       C  0.56168333  0.83122274  0.03921505    -0.09900
C1643       C  0.58946764  0.83841841  0.00127290     0.28900
C1644       C  0.62156796  0.87157096  0.00262742    -0.21900
C1645       C  0.62638682  0.89774401  0.04194166    -0.10000
C1646       C  0.59737352  0.89141985  0.07663254     0.28900
F1647       F  0.60024069  0.91631127  0.11394392    -0.20500
H1648       H  0.54427161  0.85398452  0.10407839     0.17300
H1649       H  0.64347986  0.87580893  0.97538414     0.17300
F1650       F  0.58688128  0.81263176  0.96610776    -0.20500
C1651       C  0.75198349  0.67176445  0.29066005    -0.21900
C1652       C  0.77909105  0.69321211  0.25251884    -0.09900
C1653       C  0.81262462  0.71967962  0.27241537     0.28900
C1654       C  0.82020650  0.72041427  0.32772886    -0.21900
C1655       C  0.79563496  0.69296440  0.36253089    -0.10000
C1656       C  0.75979310  0.67275166  0.34571460     0.28900
F1657       F  0.73385400  0.64901380  0.38007801    -0.20500
H1658       H  0.72483446  0.65320891  0.27777366     0.17300
H1659       H  0.84706366  0.73920434  0.34109315     0.17300
F1660       F  0.83836736  0.74410053  0.23859432    -0.20500
C1661       C  0.75777929  0.58061843  0.31950795    -0.21900
C1662       C  0.78611633  0.58495794  0.35247235    -0.09900
C1663       C  0.80392164  0.56638202  0.33728153     0.28900
C1664       C  0.79761595  0.54913890  0.28657378    -0.21900
C1665       C  0.77280245  0.54915080  0.25043268    -0.10000
C1666       C  0.75134683  0.56317654  0.26882755     0.28900
F1667       F  0.72473028  0.56083892  0.23752771    -0.20500
H1668       H  0.74257534  0.59349209  0.33035565     0.17300
H1669       H  0.81315202  0.53672017  0.27494768     0.17300
F1670       F  0.82974243  0.56755283  0.36921610    -0.20500
C1671       C  0.91601459  0.71658785  0.27343537    -0.21900
C1672       C  0.91740383  0.68773126  0.24917529    -0.09900
C1673       C  0.91377742  0.66008261  0.28269507     0.28900
C1674       C  0.90440305  0.65918419  0.33758132    -0.21900
C1675       C  0.89548085  0.68409493  0.35880012    -0.10000
C1676       C  0.90653473  0.71547053  0.32860952     0.28900
F1677       F  0.90499027  0.74355326  0.35085532    -0.20500
H1678       H  0.92242402  0.74000731  0.24986455     0.17300
H1679       H  0.89850938  0.63577799  0.36078241     0.17300
F1680       F  0.91744141  0.63281960  0.26185246    -0.20500
C1681       C  0.92599310  0.55319563  0.42083944    -0.21900
C1682       C  0.95242194  0.56016119  0.38063929    -0.09900
C1683       C  0.94464464  0.53450762  0.33883303     0.28900
C1684       C  0.91212595  0.00160631  0.33995851    -0.21900
C1685       C  0.88699113  0.99365683  0.38283491    -0.10000
C1686       C  0.89387000  0.02044625  0.42230394     0.28900
F1687       F  0.87034894  0.01464457  0.46407274    -0.20500
H1688       H  0.93087097  0.57251726  0.45315067     0.17300
H1689       H  0.90757102  0.98164283  0.30891510     0.17300
F1690       F  0.96932803  0.53996736  0.29913751    -0.20500
C1691       C  0.92590770  0.82042716  0.40246143    -0.21900
C1692       C  0.95592622  0.84441612  0.37118960    -0.09900
C1693       C  0.95311287  0.86917869  0.33844544     0.28900
C1694       C  0.92162141  0.87118218  0.33992413    -0.21900
C1695       C  0.89199303  0.84794745  0.37292639    -0.10000
C1696       C  0.89426771  0.82179747  0.40302361     0.28900
F1697       F  0.86661641  0.79857534  0.43550459    -0.20500
H1698       H  0.92732155  0.80115202  0.42809188     0.17300
H1699       H  0.92074915  0.89149249  0.31617735     0.17300
F1700       F  0.98149719  0.89292696  0.30768263    -0.20500
C1701       C  0.62315920  0.51919949  0.38551782    -0.21900
C1702       C  0.59424282  0.98805629  0.36339961    -0.09900
C1703       C  0.56614422  0.99029321  0.33945703     0.28900
C1704       C  0.56588243  0.52238978  0.34150187    -0.21900
C1705       C  0.59387306  0.55299783  0.36659941    -0.10000
C1706       C  0.62310807  0.55130644  0.38721496     0.28900
F1707       F  0.65108726  0.58020651  0.41117370    -0.20500
H1708       H  0.64543191  0.51852260  0.40356447     0.17300
H1709       H  0.54319224  0.52296191  0.32485037     0.17300
F1710       F  0.53807660  0.96121503  0.31615209    -0.20500
C1711       C  0.57474458  0.72076126  0.66398007    -0.21900
C1712       C  0.60520386  0.72964600  0.69510167    -0.09900
C1713       C  0.62799406  0.71710326  0.67639214     0.28900
C1714       C  0.62535665  0.70445639  0.62275164    -0.21900
C1715       C  0.59934392  0.70309477  0.58768235    -0.10000
C1716       C  0.57251813  0.70896246  0.61003350     0.28900
F1717       F  0.54453376  0.70407834  0.57958757    -0.20500
H1718       H  0.55487429  0.72717177  0.67870259     0.17300
H1719       H  0.64466604  0.69718928  0.60799947     0.17300
F1720       F  0.65536569  0.72102198  0.70753525    -0.20500
C1721       C  0.71262649  0.86444627  0.66070840    -0.21900
C1722       C  0.70738745  0.83584994  0.69369222    -0.09900
C1723       C  0.72353610  0.81603824  0.67643734     0.28900
C1724       C  0.73807261  0.82022616  0.62361991    -0.21900
C1725       C  0.73762872  0.84479737  0.58739318    -0.10000
C1726       C  0.72645552  0.86820027  0.60760128     0.28900
F1727       F  0.72809735  0.89427737  0.57589672    -0.20500
H1728       H  0.70252892  0.88175764  0.67348315     0.17300
H1729       H  0.74865936  0.80332282  0.61053012     0.17300
F1730       F  0.72223692  0.79031556  0.70867146    -0.20500
C1731       C  0.57185626  0.81721387  0.60675512    -0.21900
C1732       C  0.59966352  0.84823595  0.58250744    -0.09900
C1733       C  0.62687119  0.87415330  0.61610383     0.28900
C1734       C  0.62836629  0.86695735  0.67082115    -0.21900
C1735       C  0.60436284  0.83295194  0.69223716    -0.10000
C1736       C  0.57354993  0.81011898  0.66164784     0.28900
F1737       F  0.54644099  0.77953794  0.68337224    -0.20500
H1738       H  0.54876127  0.79844200  0.58327743     0.17300
H1739       H  0.65106277  0.88641696  0.69432933     0.17300
F1740       F  0.65301710  0.90591640  0.59571642    -0.20500
C1741       C  0.76100185  0.72383296  0.74082558    -0.21900
C1742       C  0.78956414  0.72774822  0.70721739    -0.09900
C1743       C  0.78404434  0.69945494  0.67189499     0.28900
C1744       C  0.75129515  0.66697277  0.67332967    -0.21900
C1745       C  0.72380013  0.66222522  0.71020991    -0.10000
C1746       C  0.72844018  0.69148141  0.74236889     0.28900
F1747       F  0.70197074  0.68840956  0.77688627    -0.20500
H1748       H  0.76446038  0.74541108  0.76789218     0.17300
H1749       H  0.74836831  0.64478268  0.64829291     0.17300
F1750       F  0.81124967  0.70200404  0.63971042    -0.20500
C1751       C  0.90380599  0.65703787  0.67366727    -0.21900
C1752       C  0.93072189  0.65502807  0.70199399    -0.09900
C1753       C  0.95874327  0.68676474  0.72498208     0.28900
C1754       C  0.95851310  0.71887948  0.72234170    -0.21900
C1755       C  0.93050000  0.72044642  0.69684434    -0.10000
C1756       C  0.90360150  0.68923250  0.67099404     0.28900
F1757       F  0.87643281  0.68935489  0.64454594    -0.20500
H1758       H  0.88209187  0.63331597  0.65485464     0.17300
H1759       H  0.97980689  0.74237732  0.74228151     0.17300
F1760       F  0.98582947  0.68674479  0.75182244    -0.20500
C1761       C  0.75915953  0.48751518  0.72967878    -0.21900
C1762       C  0.79052276  0.51345859  0.70335820    -0.09900
C1763       C  0.78938050  0.53991652  0.67269784     0.28900
C1764       C  0.75804832  0.54209443  0.67269824    -0.21900
C1765       C  0.72720519  0.51737368  0.70212105    -0.10000
C1766       C  0.72767746  0.48895300  0.72842066     0.28900
F1767       F  0.69830342  0.96336060  0.75542200    -0.20500
H1768       H  0.75936343  0.96661155  0.75276790     0.17300
H1769       H  0.75838508  0.56389755  0.65144014     0.17300
F1770       F  0.81925065  0.56519913  0.64622764    -0.20500
C1771       C  0.96192794  0.88005687  0.00613303    -0.21900
C1772       C  0.93565808  0.88706946  0.02793426    -0.09900
C1773       C  0.90385194  0.87443766  0.99814653     0.28900
C1774       C  0.90364284  0.86650108  0.94248925    -0.21900
C1775       C  0.93374472  0.86753032  0.91754166    -0.10000
C1776       C  0.96172715  0.87167888  0.95086892     0.28900
F1777       F  0.98996289  0.86969386  0.92951031    -0.20500
H1778       H  0.48571700  0.88692105  0.02916376     0.17300
H1779       H  0.87994546  0.85937185  0.91905707     0.17300
F1780       F  0.87451430  0.87346145  0.02125421    -0.20500
C1781       C  0.52905744  0.52112446  0.97554402    -0.21900
C1782       C  0.52972890  0.99728791  0.01322209    -0.09900
C1783       C  0.55197209  0.98296049  0.00121514     0.28900
C1784       C  0.57024143  0.98980650  0.95100945    -0.21900
C1785       C  0.56684649  0.51105658  0.91158506    -0.10000
C1786       C  0.54668144  0.52734666  0.92500932     0.28900
F1787       F  0.54288936  0.54839442  0.88878288    -0.20500
H1788       H  0.51232920  0.53277982  0.98279279     0.17300
H1789       H  0.58656485  0.97778044  0.94268978     0.17300
F1790       F  0.55424500  0.96047986  0.03647152    -0.20500
C1791       C  0.89696147  0.95816836  0.98756437    -0.21900
C1792       C  0.92111779  0.98296627  0.02580812    -0.09900
C1793       C  0.93838799  0.51946571  0.01278371     0.28900
C1794       C  0.93961827  0.52955627  0.95869853    -0.21900
C1795       C  0.92169603  0.50361140  0.91750919    -0.10000
C1796       C  0.89809577  0.96805439  0.93330943     0.28900
F1797       F  0.87718544  0.94250005  0.89640725    -0.20500
H1798       H  0.88083528  0.93034742  0.99728060     0.17300
H1799       H  0.95562523  0.55762582  0.94897378     0.17300
F1800       F  0.95891377  0.54484000  0.05020821    -0.20500
loop_ 
_geom_bond_atom_site_label_1 
_geom_bond_atom_site_label_2 
_geom_bond_distance 
_geom_bond_site_symmetry_2 
_ccdc_geom_bond_type 
C1            N2   1.360       .  A
C1            N6   1.367       .  A
C1           C80   1.470       .  S
N2            C3   1.356       .  A
C3            N4   1.358       .  A
C3          C136   1.468       .  S
N4            C5   1.357       .  A
C5            N6   1.364       .  A
C5          C930   1.482   1_455  S
C7            N8   1.364       .  A
C7           N12   1.365       .  A
C7           C74   1.476       .  S
N8            C9   1.357       .  A
C9           N10   1.358       .  A
C9          C114   1.469       .  S
N10          C11   1.355       .  A
C11          N12   1.363       .  A
C11         C958   1.479   1_455  S
C13          N14   1.357       .  A
C13        N1368   1.356       .  A
C13         C442   1.485       .  S
N14          C15   1.358       .  A
C15          N16   1.357       .  A
C15         C422   1.487       .  S
N16         C917   1.351       .  A
C17         N916   1.351       .  A
C17         N468   1.352       .  A
C17         C432   1.487   1_655  S
N18        C1363   1.356       .  A
N18         C467   1.352       .  A
O19         Cr37   2.002       .  S
O19          C27   1.261       .  A
O20         Cr37   1.982       .  S
O20          C21   1.258       .  A
C21         C402   1.496       .  S
C21          O22   1.267       .  A
O22         Cr38   2.021       .  S
O23         Cr38   1.989       .  S
O23          C24   1.269       .  A
C24         C185   1.463       .  S
C24          O25   1.265       .  A
O25         Cr39   1.985       .  S
O26         Cr39   1.967       .  S
O26          C27   1.255       .  A
C27         C412   1.476       .  S
O28         Cr37   1.978       .  S
O28         C486   1.262   1_545  A
O29         Cr37   2.013       .  S
O29          C30   1.268       .  A
C30         C905   1.482       .  S
C30          O31   1.263       .  A
O31         Cr38   1.998       .  S
O32         Cr38   1.987       .  S
O32          C33   1.257       .  A
C33         C445   1.481       .  S
C33          O34   1.256   1_545  A
O34         Cr39   1.967   1_565  S
O35        Cr489   2.003       .  S
O35          C36   1.264       .  A
C36          C85   1.469       .  S
C36         O478   1.262       .  A
Cr37         O40   1.782       .  S
Cr38         O40   1.790       .  S
Cr39        O485   2.003   1_545  S
Cr39         O40   1.784       .  S
O41         Cr59   1.997       .  S
O41          C49   1.257       .  A
O42         Cr59   2.001       .  S
O42          C43   1.261       .  A
C43         C392   1.478       .  S
C43          O44   1.254       .  A
O44         Cr60   1.959       .  S
O45         Cr60   1.990       .  S
O45          C46   1.270       .  A
C46         C189   1.467       .  S
C46          O47   1.272       .  A
O47         Cr61   1.993       .  S
O48         Cr61   2.002       .  S
O48          C49   1.259       .  A
C49         C405   1.494       .  S
O50         Cr59   2.024       .  S
O50          C58   1.274       .  A
O51         Cr59   1.980       .  S
O51          C52   1.262       .  A
C52          C87   1.472       .  S
C52          O53   1.265       .  A
O53         Cr60   2.005       .  S
O54         Cr60   1.973       .  S
O54          C55   1.256       .  A
C55         C425   1.471       .  S
C55          O56   1.250       .  A
O56         Cr61   1.967       .  S
O57         Cr61   1.985       .  S
O57          C58   1.263       .  A
C58         C911   1.479       .  S
Cr59         O62   1.784       .  S
Cr60         O62   1.783       .  S
Cr61         O62   1.790       .  S
O63         Cr81   1.997       .  S
O63          C71   1.261       .  A
O64         Cr81   1.997       .  S
O64          C65   1.259       .  A
C65         C415   1.488       .  S
C65          O66   1.257   1_545  A
O66         Cr82   1.992   1_565  S
O67         Cr82   1.998       .  S
O67          C68   1.273       .  A
C68         C269   1.472       .  S
C68          O69   1.268       .  A
O69         Cr83   1.995       .  S
O70         Cr83   1.968       .  S
O70          C71   1.257       .  A
C71         C395   1.479       .  S
O72         Cr81   1.981       .  S
O72          C80   1.262       .  A
O73         Cr81   2.012   1_565  S
O73         C524   1.270       .  A
C74          O75   1.267       .  A
C74         O523   1.270       .  A
O75        Cr532   1.993       .  S
O76         Cr82   1.981       .  S
O76          C77   1.253       .  A
C77         C435   1.481       .  S
C77          O78   1.256       .  A
O78         Cr83   1.980       .  S
O79         Cr83   1.996       .  S
O79          C80   1.263       .  A
Cr81         O84   1.787       .  S
Cr82        O525   1.993   1_545  S
Cr82         O84   1.785       .  S
Cr83         O84   1.781       .  S
C85          N86   1.365       .  A
C85          N90   1.351       .  A
N86          C87   1.367       .  A
C87          N88   1.360       .  A
N88          C89   1.355       .  A
C89          N90   1.354       .  A
C89         C158   1.461       .  S
C91          N92   1.355       .  A
C91          N96   1.363       .  A
C91         C120   1.479       .  S
N92          C93   1.357       .  A
C93          N94   1.357       .  A
C93         C226   1.467       .  S
N94          C95   1.361       .  A
C95          N96   1.367       .  A
C95         C170   1.473       .  S
C97         N102   1.365       .  A
C97         N998   1.363       .  A
C97         C142   1.472       .  S
N98          C99   1.358       .  A
N98         C997   1.363       .  A
C99         N100   1.352       .  A
C99        C1104   1.464       .  S
N100       C1001   1.351       .  A
C101        N102   1.363       .  A
C101       N1000   1.351       .  A
C101        C126   1.466       .  S
C103        N104   1.357       .  A
C103        N108   1.356       .  A
C103        C385   1.491       .  S
N104        C105   1.354       .  A
C105        N106   1.355       .  A
C105        C372   1.489       .  S
N106        C107   1.356       .  A
C107        N108   1.357       .  A
C107        C362   1.487       .  S
O109       Cr127   2.004       .  S
O109       C1017   1.262   1_455  A
O110       Cr127   1.977       .  S
O110        C111   1.253       .  A
C111        C352   1.481       .  S
C111        O112   1.259       .  A
O112       Cr128   1.998       .  S
O113       Cr128   2.001       .  S
O113        C114   1.274       .  A
C114        O115   1.265       .  A
O115       Cr129   1.976       .  S
O116      Cr1029   1.973       .  S
O116        C117   1.257       .  A
C117        C342   1.487       .  S
C117       O1009   1.262       .  A
O118       Cr127   1.974       .  S
O118        C126   1.261       .  A
O119       Cr127   2.019       .  S
O119        C120   1.271       .  A
C120        O121   1.263       .  A
O121       Cr128   1.992       .  S
O122       Cr128   1.959       .  S
O122        C123   1.249       .  A
C123        C382   1.474       .  S
C123        O124   1.259       .  A
O124       Cr129   1.981       .  S
O125       Cr129   1.997       .  S
O125        C126   1.263       .  A
Cr127       O130   1.787       .  S
Cr128       O130   1.791       .  S
Cr129      O1016   1.973   1_455  S
Cr129       O130   1.785       .  S
O131       Cr149   1.979       .  S
O131        C139   1.253       .  A
O132       Cr149   1.998       .  S
O132       C1033   1.260   1_455  A
C133        C332   1.486       .  S
C133        O134   1.256       .  A
C133       O1032   1.260       .  A
O134      Cr1050   1.965       .  S
O135       Cr150   1.997       .  S
O135        C136   1.271       .  A
C136        O137   1.274       .  A
O137       Cr151   1.993       .  S
O138       Cr151   1.995       .  S
O138        C139   1.256       .  A
C139        C355   1.480       .  S
O140       Cr149   2.021       .  S
O140        C148   1.273       .  A
O141       Cr149   1.970       .  S
O141        C142   1.259       .  A
C142        O143   1.267       .  A
O143       Cr150   2.009       .  S
O144       Cr150   1.976       .  S
O144        C145   1.257       .  A
C145        C365   1.477       .  S
C145        O146   1.249       .  A
O146       Cr151   1.974       .  S
O147       Cr151   1.984       .  S
O147        C148   1.266       .  A
C148        C177   1.475       .  S
Cr149       O152   1.787       .  S
Cr150      O1034   1.965   1_455  S
Cr150       O152   1.779       .  S
Cr151       O152   1.790       .  S
O153       Cr171   2.001       .  S
O153        C161   1.262       .  A
O154       Cr171   2.002       .  S
O154        C155   1.257       .  A
C155        C345   1.494       .  S
C155        O156   1.256       .  A
O156       Cr172   1.998       .  S
O157       Cr172   1.987       .  S
O157        C158   1.271       .  A
C158        O159   1.270       .  A
O159       Cr173   1.989       .  S
O160       Cr173   1.964       .  S
O160        C161   1.255       .  A
C161        C335   1.488       .  S
O162       Cr171   1.990       .  S
O162        C170   1.264       .  A
O163       Cr171   2.024       .  S
O163        C164   1.276       .  A
C164        C175   1.478       .  S
C164        O165   1.267       .  A
O165       Cr172   1.986       .  S
O166       Cr172   1.982       .  S
O166        C167   1.251       .  A
C167        C375   1.483       .  S
C167        O168   1.255       .  A
O168       Cr173   1.980       .  S
O169       Cr173   1.992       .  S
O169        C170   1.263       .  A
Cr171       O174   1.787       .  S
Cr172       O174   1.791       .  S
Cr173       O174   1.781       .  S
C175        N176   1.363       .  A
C175        N180   1.356       .  A
N176        C177   1.365       .  A
C177        N178   1.362       .  A
N178        C179   1.357       .  A
C179        N180   1.357       .  A
C179        C248   1.468       .  S
C181        N182   1.363       .  A
C181        N186   1.355   1_554  A
C181        C688   1.475       .  S
N182        C183   1.367       .  A
C183        N184   1.359   1_554  A
C183        C210   1.469       .  S
N184        C185   1.354       .  A
C185        N186   1.355       .  A
C187        N188   1.363       .  A
C187        N192   1.366   1_556  A
C187        C216   1.474   1_556  S
N188        C189   1.358       .  A
C189        N190   1.355       .  A
N190        C191   1.352       .  A
C191        N192   1.363   1_556  A
C191        C254   1.472   1_556  S
C193        N194   1.357       .  A
C193        N198   1.358       .  A
C193        C305   1.484       .  S
N194        C195   1.356       .  A
C195        N196   1.357       .  A
C195        C325   1.485       .  S
N196        C197   1.352       .  A
C197        N198   1.351       .  A
C197        C312   1.488       .  S
O199       Cr217   2.005   1_455  S
O199        C207   1.262       .  A
O200       Cr217   1.981   1_455  S
O200        C201   1.255       .  A
C201        C282   1.480       .  S
C201        O202   1.256       .  A
O202      Cr1118   1.993   1_455  S
O203      Cr1118   1.988   1_455  S
O203        C204   1.269       .  A
C204        C999   1.464       .  S
C204        O205   1.271       .  A
O205      Cr1119   1.996   1_455  S
O206      Cr1119   1.952   1_455  S
O206        C207   1.253       .  A
C207        C292   1.478       .  S
O208      Cr1117   1.976   1_556  S
O208        C216   1.261   1_556  A
O209      Cr1117   2.019       .  S
O209        C210   1.273       .  A
C210        O211   1.262       .  A
O211       Cr218   1.974       .  S
O212       Cr218   1.958       .  S
O212        C213   1.249       .  A
C213        C322   1.467       .  S
C213        O214   1.256       .  A
O214       Cr219   1.974       .  S
O215       Cr219   2.010       .  S
O215        C216   1.267       .  A
Cr217      O1108   1.976   1_554  S
Cr217      O1109   2.019       .  S
Cr217      O1120   1.781       .  S
Cr218      O1102   1.993       .  S
Cr218      O1103   1.988       .  S
Cr218       O220   1.788       .  S
Cr219      O1105   1.996       .  S
Cr219      O1106   1.952       .  S
Cr219       O220   1.776       .  S
O220      Cr1117   1.781       .  S
O221       Cr239   2.005       .  S
O221        C229   1.258       .  A
O222       Cr239   1.992       .  S
O222        C223   1.260       .  A
C223        C295   1.480       .  S
C223        O224   1.256       .  A
O224       Cr240   1.965       .  S
O225       Cr240   1.996       .  S
O225        C226   1.270       .  A
C226        O227   1.271       .  A
O227       Cr241   1.990       .  S
O228       Cr241   1.998       .  S
O228        C229   1.257       .  A
C229        C272   1.495       .  S
O230       Cr239   2.012       .  S
O230        C238   1.273       .  A
O231       Cr239   1.990   1_556  S
O231        C232   1.264   1_556  A
C232        C715   1.471   1_554  S
C232        O233   1.263       .  A
O233       Cr240   1.992       .  S
O234       Cr690   1.979   1_545  S
O234        C235   1.255       .  A
C235        C315   1.480       .  S
C235        O236   1.252       .  A
O236       Cr691   1.977   1_545  S
O237       Cr241   1.990       .  S
O237        C238   1.266       .  A
C238        C631   1.475       .  S
Cr239       O242   1.787       .  S
Cr240       O684   1.979       .  S
Cr240       O242   1.780       .  S
Cr241       O686   1.977       .  S
Cr241       O242   1.788       .  S
O243       Cr261   1.969       .  S
O243        C251   1.254       .  A
O244       Cr261   2.008       .  S
O244        C245   1.262       .  A
C245        C275   1.490       .  S
C245        O246   1.256       .  A
O246       Cr262   1.972       .  S
O247       Cr262   1.991       .  S
O247        C248   1.268       .  A
C248        O249   1.272       .  A
O249       Cr263   1.994       .  S
O250       Cr263   2.005       .  S
O250        C251   1.260       .  A
C251        C285   1.481       .  S
O252       Cr261   2.025       .  S
O252        C260   1.272       .  A
O253       Cr261   1.974   1_556  S
O253        C254   1.262   1_556  A
C254        O255   1.266       .  A
O255       Cr262   2.010       .  S
O256       Cr262   1.969       .  S
O256        C257   1.256       .  A
C257        C302   1.479       .  S
C257        O258   1.252       .  A
O258       Cr263   1.970       .  S
O259       Cr263   1.994       .  S
O259        C260   1.265       .  A
C260        C267   1.485   1_554  S
Cr261       O264   1.784       .  S
Cr262       O264   1.786       .  S
Cr263       O264   1.792       .  S
C265        N266   1.366   1_556  A
C265        N270   1.360       .  A
C265        C682   1.471   1_556  S
N266        C267   1.363   1_554  A
C267        N268   1.359       .  A
N268        C269   1.362       .  A
C269        N270   1.357       .  A
C271        C272   1.409       .  A
C271        C276   1.408       .  A
C271        H278   1.083   1_554  S
C272        C273   1.412       .  A
C273        C274   1.398       .  A
C273        F280   1.358       .  S
C274        C275   1.404       .  A
C274        H279   1.083       .  S
C275        C276   1.411       .  A
C276        F277   1.357   1_554  S
C281        C282   1.407       .  A
C281        C286   1.398       .  A
C281        H288   1.083       .  S
C282        C283   1.407       .  A
C283        C284   1.395       .  A
C283        F290   1.357   1_554  S
C284        C285   1.406       .  A
C284        H289   1.083       .  S
C285        C286   1.408       .  A
C286        F287   1.358       .  S
C291        C292   1.404       .  A
C291        C296   1.391       .  A
C291        H298   1.084       .  S
C292        C293   1.407       .  A
C293        C294   1.403       .  A
C293        F300   1.357   1_554  S
C294        C295   1.408       .  A
C294        H299   1.083   1_554  S
C295        C296   1.406       .  A
C296        F297   1.358       .  S
C301        C302   1.410       .  A
C301        C306   1.393       .  A
C301        H308   1.083       .  S
C302        C303   1.406       .  A
C303        C304   1.398       .  A
C303        F310   1.357       .  S
C304        C305   1.410       .  A
C304        H309   1.080       .  S
C305        C306   1.405       .  A
C306        F307   1.358       .  S
C311        C312   1.413       .  A
C311        C316   1.398       .  A
C311        H318   1.082       .  S
C312        C313   1.408       .  A
C313        C314   1.395       .  A
C313        F320   1.358       .  S
C314        C315   1.408       .  A
C314        H319   1.083       .  S
C315        C316   1.405       .  A
C316        F317   1.358       .  S
C321        C322   1.402       .  A
C321        C326   1.397       .  A
C321        H328   1.084       .  S
C322        C323   1.408       .  A
C323        C324   1.390       .  A
C323        F330   1.358       .  S
C324        C325   1.406       .  A
C324        H329   1.084       .  S
C325        C326   1.412       .  A
C326        F327   1.356       .  S
C331        C332   1.405       .  A
C331        C786   1.394       .  A
C331        H338   1.083       .  S
C332        C333   1.410       .  A
C333        C784   1.404       .  A
C333        F340   1.357       .  S
C334        C335   1.408       .  A
C334        C783   1.404       .  A
C334        H339   1.083       .  S
C335        C336   1.410       .  A
C336        C781   1.394       .  A
C336        F337   1.358       .  S
C341        C342   1.403       .  A
C341        C346   1.398       .  A
C341        H348   1.083       .  S
C342        C343   1.410       .  A
C343        C344   1.407       .  A
C343        F350   1.356       .  S
C344        C345   1.408       .  A
C344        H349   1.083       .  S
C345        C346   1.412       .  A
C346        F347   1.357       .  S
C351        C356   1.394       .  A
C351        C802   1.404   1_545  A
C351        H358   1.083       .  S
C352        C353   1.409       .  A
C352        C801   1.404       .  A
C353        C804   1.398       .  A
C353        F360   1.356       .  S
C354        C355   1.405       .  A
C354        C803   1.398   1_545  A
C354        H359   1.083       .  S
C355        C356   1.409       .  A
C356        F357   1.357       .  S
C361        C362   1.409       .  A
C361        C366   1.395       .  A
C361        H368   1.081       .  S
C362        C363   1.410       .  A
C363        C364   1.398       .  A
C363        F370   1.358       .  S
C364        C365   1.408       .  A
C364        H369   1.083       .  S
C365        C366   1.404       .  A
C366        F367   1.357       .  S
C371        C372   1.412       .  A
C371        C376   1.396       .  A
C371        H378   1.081       .  S
C372        C373   1.408       .  A
C373        C374   1.399       .  A
C373        F380   1.358       .  S
C374        C375   1.410       .  A
C374        H379   1.083       .  S
C375        C376   1.405       .  A
C376        F377   1.357       .  S
C381        C382   1.402       .  A
C381        C386   1.398       .  A
C381        H388   1.083       .  S
C382        C383   1.411       .  A
C383        C384   1.393       .  A
C383        F390   1.359       .  S
C384        C385   1.407       .  A
C384        H389   1.083       .  S
C385        C386   1.412       .  A
C386        F387   1.356       .  S
C391        C392   1.405       .  A
C391        C396   1.395       .  A
C391        H398   1.084       .  S
C392        C393   1.407       .  A
C393        C394   1.402       .  A
C393        F400   1.357       .  S
C394        C395   1.406       .  A
C394        H399   1.083       .  S
C395        C396   1.406       .  A
C396        F397   1.358       .  S
C401        C402   1.410       .  A
C401        C406   1.404       .  A
C401        H408   1.083       .  S
C402        C403   1.409       .  A
C403        C404   1.401       .  A
C403        F410   1.357       .  S
C404        C405   1.408       .  A
C404        H409   1.083       .  S
C405        C406   1.410       .  A
C406        F407   1.357       .  S
C411        C412   1.400   1_565  A
C411        C416   1.394       .  A
C411        H868   1.084       .  S
C412        C413   1.407       .  A
C413        C414   1.404       .  A
C413        F420   1.357       .  S
C414        C415   1.408       .  A
C414        H419   1.083       .  S
C415        C416   1.413   1_545  A
C416        F867   1.358       .  S
F417        C866   1.358       .  S
H418        C861   1.084       .  S
C421        C422   1.407       .  A
C421        C426   1.393   1_554  A
C421       H1328   1.084       .  S
C422        C423   1.411   1_554  A
C423        C424   1.398       .  A
C423        F430   1.357   1_556  S
C424        C425   1.404       .  A
C424        H429   1.083       .  S
C425        C426   1.408       .  A
C426        F427   1.358       .  S
H428       C1321   1.084       .  S
C431        C436   1.395       .  A
C431        C882   1.413   1_546  A
C431        H438   1.082       .  S
C432        C433   1.408       .  A
C432        C881   1.413   1_554  A
C433        C434   1.398   1_554  A
C433        F440   1.358       .  S
C434        C885   1.410       .  A
C434        H439   1.083       .  S
C435        C436   1.403       .  A
C435        C884   1.410   1_545  A
C436        F437   1.357       .  S
C441        C442   1.411   1_556  A
C441        C446   1.398       .  A
C441        H448   1.070       .  S
C442        C893   1.405       .  A
C443        C444   1.396   1_554  A
C443        C892   1.405   1_545  A
C443        F450   1.358       .  S
C444        C445   1.410       .  A
C444        H449   1.081       .  S
C445        C896   1.406   1_545  A
C446        C895   1.406       .  A
C446        F447   1.358       .  S
C451        N452   1.360       .  A
C451        N456   1.367       .  A
C451        C530   1.470       .  S
N452        C453   1.356       .  A
C453        N454   1.358       .  A
C453        C586   1.468       .  S
N454        C455   1.357       .  A
C455        N456   1.364       .  A
C455       C1380   1.482   1_455  S
C457        N458   1.364       .  A
C457        N462   1.365       .  A
C457        C524   1.476       .  S
N458        C459   1.357       .  A
C459        N460   1.358       .  A
C459        C564   1.469       .  S
N460        C461   1.355       .  A
C461        N462   1.363       .  A
C461       C1408   1.479   1_455  S
C463        N464   1.357       .  A
C463        N918   1.356       .  A
C463        C892   1.485       .  S
N464        C465   1.358       .  A
C465        N466   1.357       .  A
C465        C872   1.487       .  S
N466       C1367   1.351       .  A
C467       N1366   1.351       .  A
C467        C882   1.487   1_655  S
N468        C913   1.356       .  A
O469       Cr487   2.002       .  S
O469        C477   1.261       .  A
O470       Cr487   1.982       .  S
O470        C471   1.258       .  A
C471        C852   1.496       .  S
C471        O472   1.267       .  A
O472       Cr488   2.021       .  S
O473       Cr488   1.988       .  S
O473        C474   1.269       .  A
C474        C635   1.463       .  S
C474        O475   1.265       .  A
O475       Cr489   1.985       .  S
O476       Cr489   1.967       .  S
O476        C477   1.255       .  A
C477        C862   1.476       .  S
O478       Cr487   1.978       .  S
O479       Cr487   2.013       .  S
O479        C480   1.268       .  A
C480       C1355   1.482       .  S
C480        O481   1.263       .  A
O481       Cr488   1.998       .  S
O482       Cr488   1.987       .  S
O482        C483   1.257       .  A
C483        C895   1.481       .  S
C483        O484   1.256       .  A
O484       Cr489   1.967       .  S
O485        C486   1.264       .  A
C486        C535   1.469       .  S
Cr487       O490   1.782       .  S
Cr488       O490   1.790       .  S
Cr489       O490   1.784       .  S
O491       Cr509   1.997       .  S
O491        C499   1.257       .  A
O492       Cr509   2.001       .  S
O492        C493   1.262       .  A
C493        C842   1.478       .  S
C493        O494   1.254       .  A
O494       Cr510   1.959       .  S
O495       Cr510   1.990       .  S
O495        C496   1.270       .  A
C496        C639   1.466       .  S
C496        O497   1.272       .  A
O497       Cr511   1.993       .  S
O498       Cr511   2.002       .  S
O498        C499   1.259       .  A
C499        C855   1.494       .  S
O500       Cr509   2.024       .  S
O500        C508   1.274       .  A
O501       Cr509   1.980       .  S
O501        C502   1.262       .  A
C502        C537   1.472       .  S
C502        O503   1.265       .  A
O503       Cr510   2.005       .  S
O504       Cr510   1.973       .  S
O504        C505   1.256       .  A
C505        C875   1.471       .  S
C505        O506   1.250       .  A
O506       Cr511   1.967       .  S
O507       Cr511   1.985       .  S
O507        C508   1.263       .  A
C508       C1361   1.479       .  S
Cr509       O512   1.784       .  S
Cr510       O512   1.783       .  S
Cr511       O512   1.790       .  S
O513       Cr531   1.997       .  S
O513        C521   1.261       .  A
O514       Cr531   1.997       .  S
O514        C515   1.259       .  A
C515        C865   1.488       .  S
C515        O516   1.257       .  A
O516       Cr532   1.992       .  S
O517       Cr532   1.998       .  S
O517        C518   1.273       .  A
C518        C719   1.472       .  S
C518        O519   1.268       .  A
O519       Cr533   1.995       .  S
O520       Cr533   1.968       .  S
O520        C521   1.257       .  A
C521        C845   1.479       .  S
O522       Cr531   1.981       .  S
O522        C530   1.262       .  A
O523       Cr531   2.011       .  S
C524        O525   1.267       .  A
O526       Cr532   1.981       .  S
O526        C527   1.253       .  A
C527        C885   1.481       .  S
C527        O528   1.256       .  A
O528       Cr533   1.980       .  S
O529       Cr533   1.996       .  S
O529        C530   1.263       .  A
Cr531       O534   1.787       .  S
Cr532       O534   1.785       .  S
Cr533       O534   1.781       .  S
C535        N536   1.365       .  A
C535        N540   1.351       .  A
N536        C537   1.367       .  A
C537        N538   1.360       .  A
N538        C539   1.355       .  A
C539        N540   1.354       .  A
C539        C608   1.460       .  S
C541        N542   1.355       .  A
C541        N546   1.363       .  A
C541        C570   1.479       .  S
N542        C543   1.357       .  A
C543        N544   1.357       .  A
C543        C676   1.467       .  S
N544        C545   1.361       .  A
C545        N546   1.367       .  A
C545        C620   1.474       .  S
C547       N1448   1.363       .  A
C547        N552   1.365       .  A
C547        C592   1.472       .  S
N548       C1447   1.363       .  A
N548        C549   1.358       .  A
C549        N550   1.352       .  A
C549       C1554   1.465       .  S
N550       C1451   1.351       .  A
C551       N1450   1.351       .  A
C551        N552   1.363       .  A
C551        C576   1.466       .  S
C553        N554   1.357       .  A
C553        N558   1.356       .  A
C553        C835   1.490       .  S
N554        C555   1.354       .  A
C555        N556   1.355       .  A
C555        C822   1.489       .  S
N556        C557   1.356       .  A
C557        N558   1.357       .  A
C557        C812   1.487       .  S
O559       Cr577   2.003       .  S
O559       C1467   1.262   1_455  A
O560       Cr577   1.977       .  S
O560        C561   1.253       .  A
C561        C802   1.481       .  S
C561        O562   1.259       .  A
O562       Cr578   1.998       .  S
O563       Cr578   2.001       .  S
O563        C564   1.274       .  A
C564        O565   1.265       .  A
O565       Cr579   1.977       .  S
O566      Cr1479   1.973       .  S
O566        C567   1.257       .  A
C567        C792   1.487       .  S
C567       O1459   1.262       .  A
O568       Cr577   1.974       .  S
O568        C576   1.261       .  A
O569       Cr577   2.019       .  S
O569        C570   1.271       .  A
C570        O571   1.263       .  A
O571       Cr578   1.992       .  S
O572       Cr578   1.959       .  S
O572        C573   1.249       .  A
C573        C832   1.474       .  S
C573        O574   1.259       .  A
O574       Cr579   1.981       .  S
O575       Cr579   1.997       .  S
O575        C576   1.263       .  A
Cr577       O580   1.787       .  S
Cr578       O580   1.791       .  S
Cr579      O1466   1.973   1_455  S
Cr579       O580   1.785       .  S
O581       Cr599   1.979       .  S
O581        C589   1.253       .  A
O582       Cr599   1.998       .  S
O582       C1483   1.260   1_455  A
C583        C782   1.486       .  S
C583       O1482   1.260       .  A
C583        O584   1.256       .  A
O584      Cr1500   1.965       .  S
O585       Cr600   1.997       .  S
O585        C586   1.271       .  A
C586        O587   1.274       .  A
O587       Cr601   1.993       .  S
O588       Cr601   1.995       .  S
O588        C589   1.256       .  A
C589        C805   1.480       .  S
O590       Cr599   2.021       .  S
O590        C598   1.273       .  A
O591       Cr599   1.970       .  S
O591        C592   1.259       .  A
C592        O593   1.267       .  A
O593       Cr600   2.010       .  S
O594       Cr600   1.976       .  S
O594        C595   1.257       .  A
C595        C815   1.477       .  S
C595        O596   1.249       .  A
O596       Cr601   1.974       .  S
O597       Cr601   1.984       .  S
O597        C598   1.266       .  A
C598        C627   1.475       .  S
Cr599       O602   1.787       .  S
Cr600      O1484   1.965   1_455  S
Cr600       O602   1.779       .  S
Cr601       O602   1.790       .  S
O603       Cr621   2.001       .  S
O603        C611   1.262       .  A
O604       Cr621   2.002       .  S
O604        C605   1.257       .  A
C605        C795   1.494       .  S
C605        O606   1.256       .  A
O606       Cr622   1.998       .  S
O607       Cr622   1.987       .  S
O607        C608   1.271       .  A
C608        O609   1.270       .  A
O609       Cr623   1.989       .  S
O610       Cr623   1.964       .  S
O610        C611   1.255       .  A
C611        C785   1.488       .  S
O612       Cr621   1.990       .  S
O612        C620   1.264       .  A
O613       Cr621   2.024       .  S
O613        C614   1.276       .  A
C614        C625   1.478       .  S
C614        O615   1.267       .  A
O615       Cr622   1.986       .  S
O616       Cr622   1.982       .  S
O616        C617   1.251       .  A
C617        C825   1.483       .  S
C617        O618   1.256       .  A
O618       Cr623   1.980       .  S
O619       Cr623   1.992       .  S
O619        C620   1.263       .  A
Cr621       O624   1.787       .  S
Cr622       O624   1.791       .  S
Cr623       O624   1.781       .  S
C625        N626   1.363       .  A
C625        N630   1.356       .  A
N626        C627   1.365       .  A
C627        N628   1.362       .  A
N628        C629   1.357       .  A
C629        N630   1.357       .  A
C629        C698   1.468       .  S
C631        N632   1.363       .  A
C631        N636   1.355   1_554  A
N632        C633   1.367       .  A
C633        N634   1.359   1_554  A
C633        C660   1.469       .  S
N634        C635   1.353       .  A
C635        N636   1.355       .  A
C637        N638   1.363       .  A
C637        N642   1.366   1_556  A
C637        C666   1.474   1_556  S
N638        C639   1.358       .  A
C639        N640   1.355       .  A
N640        C641   1.352       .  A
C641        N642   1.363   1_556  A
C641        C704   1.472   1_556  S
C643        N644   1.357       .  A
C643        N648   1.358       .  A
C643        C755   1.484       .  S
N644        C645   1.356       .  A
C645        N646   1.357       .  A
C645        C775   1.485       .  S
N646        C647   1.352       .  A
C647        N648   1.351       .  A
C647        C762   1.488       .  S
O649       Cr667   2.005   1_455  S
O649        C657   1.262       .  A
O650       Cr667   1.981   1_455  S
O650        C651   1.255       .  A
C651        C732   1.480       .  S
C651        O652   1.256       .  A
O652      Cr1568   1.993   1_455  S
O653      Cr1568   1.988   1_455  S
O653        C654   1.269       .  A
C654       C1449   1.465       .  S
C654        O655   1.271       .  A
O655      Cr1569   1.997   1_455  S
O656      Cr1569   1.952   1_455  S
O656        C657   1.253       .  A
C657        C742   1.478       .  S
O658      Cr1567   1.976   1_556  S
O658        C666   1.261   1_556  A
O659      Cr1567   2.018       .  S
O659        C660   1.273       .  A
C660        O661   1.262       .  A
O661       Cr668   1.974       .  S
O662       Cr668   1.958       .  S
O662        C663   1.249       .  A
C663        C772   1.467       .  S
C663        O664   1.256       .  A
O664       Cr669   1.974       .  S
O665       Cr669   2.010       .  S
O665        C666   1.267       .  A
Cr667      O1558   1.976   1_554  S
Cr667      O1559   2.018       .  S
Cr667      O1570   1.781       .  S
Cr668      O1552   1.993       .  S
Cr668      O1553   1.988       .  S
Cr668       O670   1.788       .  S
Cr669      O1555   1.997       .  S
Cr669      O1556   1.952       .  S
Cr669       O670   1.776       .  S
O670      Cr1567   1.781       .  S
O671       Cr689   2.005       .  S
O671        C679   1.258       .  A
O672       Cr689   1.992       .  S
O672        C673   1.260       .  A
C673        C745   1.480       .  S
C673        O674   1.256       .  A
O674       Cr690   1.965       .  S
O675       Cr690   1.996       .  S
O675        C676   1.270       .  A
C676        O677   1.271       .  A
O677       Cr691   1.990       .  S
O678       Cr691   1.998       .  S
O678        C679   1.257       .  A
C679        C722   1.495       .  S
O680       Cr689   2.012   1_545  S
O680        C688   1.273       .  A
O681       Cr689   1.989   1_546  S
O681        C682   1.264   1_556  A
C682        O683   1.263       .  A
O683       Cr690   1.992   1_545  S
O684        C685   1.255       .  A
C685        C765   1.480       .  S
C685        O686   1.252       .  A
O687       Cr691   1.990   1_545  S
O687        C688   1.266       .  A
Cr689       O692   1.787       .  S
Cr690       O692   1.780       .  S
Cr691       O692   1.787       .  S
O693       Cr711   1.969       .  S
O693        C701   1.254       .  A
O694       Cr711   2.008       .  S
O694        C695   1.262       .  A
C695        C725   1.490       .  S
C695        O696   1.256       .  A
O696       Cr712   1.972       .  S
O697       Cr712   1.991       .  S
O697        C698   1.268       .  A
C698        O699   1.272       .  A
O699       Cr713   1.994       .  S
O700       Cr713   2.005       .  S
O700        C701   1.260       .  A
C701        C735   1.481       .  S
O702       Cr711   2.025       .  S
O702        C710   1.272       .  A
O703       Cr711   1.974   1_556  S
O703        C704   1.262   1_556  A
C704        O705   1.266       .  A
O705       Cr712   2.010       .  S
O706       Cr712   1.969       .  S
O706        C707   1.256       .  A
C707        C752   1.478       .  S
C707        O708   1.252       .  A
O708       Cr713   1.970       .  S
O709       Cr713   1.994       .  S
O709        C710   1.265       .  A
C710        C717   1.485   1_554  S
Cr711       O714   1.784       .  S
Cr712       O714   1.786       .  S
Cr713       O714   1.792       .  S
C715        N716   1.366   1_556  A
C715        N720   1.360       .  A
N716        C717   1.363   1_554  A
C717        N718   1.359       .  A
N718        C719   1.362       .  A
C719        N720   1.357       .  A
C721        C722   1.409       .  A
C721        C726   1.408       .  A
C721        H728   1.083   1_554  S
C722        C723   1.412       .  A
C723        C724   1.398       .  A
C723        F730   1.358       .  S
C724        C725   1.404       .  A
C724        H729   1.083       .  S
C725        C726   1.411       .  A
C726        F727   1.357   1_554  S
C731        C732   1.407       .  A
C731        C736   1.398       .  A
C731        H738   1.083       .  S
C732        C733   1.407       .  A
C733        C734   1.395       .  A
C733        F740   1.357   1_554  S
C734        C735   1.406       .  A
C734        H739   1.083       .  S
C735        C736   1.408       .  A
C736        F737   1.358       .  S
C741        C742   1.404       .  A
C741        C746   1.391       .  A
C741        H748   1.084       .  S
C742        C743   1.407       .  A
C743        C744   1.403       .  A
C743        F750   1.357   1_554  S
C744        C745   1.408       .  A
C744        H749   1.083   1_554  S
C745        C746   1.406       .  A
C746        F747   1.358       .  S
C751        C752   1.410       .  A
C751        C756   1.393       .  A
C751        H758   1.083       .  S
C752        C753   1.406       .  A
C753        C754   1.398       .  A
C753        F760   1.357       .  S
C754        C755   1.410       .  A
C754        H759   1.080       .  S
C755        C756   1.405       .  A
C756        F757   1.358       .  S
C761        C762   1.413       .  A
C761        C766   1.398       .  A
C761        H768   1.082       .  S
C762        C763   1.408       .  A
C763        C764   1.395       .  A
C763        F770   1.358       .  S
C764        C765   1.408       .  A
C764        H769   1.083       .  S
C765        C766   1.405       .  A
C766        F767   1.358       .  S
C771        C772   1.402       .  A
C771        C776   1.397       .  A
C771        H778   1.084       .  S
C772        C773   1.408       .  A
C773        C774   1.390       .  A
C773        F780   1.358       .  S
C774        C775   1.406       .  A
C774        H779   1.084       .  S
C775        C776   1.412       .  A
C776        F777   1.356       .  S
C781        C782   1.405       .  A
C781        H788   1.083       .  S
C782        C783   1.410       .  A
C783        F790   1.357       .  S
C784        C785   1.408   1_545  A
C784        H789   1.083   1_545  S
C785        C786   1.410   1_565  A
C786        F787   1.358       .  S
C791        C792   1.403       .  A
C791        C796   1.398       .  A
C791        H798   1.083       .  S
C792        C793   1.410       .  A
C793        C794   1.407       .  A
C793        F800   1.356       .  S
C794        C795   1.408       .  A
C794        H799   1.083       .  S
C795        C796   1.412       .  A
C796        F797   1.357       .  S
C801        C806   1.394       .  A
C801        H808   1.083       .  S
C802        C803   1.409       .  A
C803        F810   1.356       .  S
C804        C805   1.405       .  A
C804        H809   1.083       .  S
C805        C806   1.409       .  A
C806        F807   1.357       .  S
C811        C812   1.409       .  A
C811        C816   1.395       .  A
C811        H818   1.081       .  S
C812        C813   1.410       .  A
C813        C814   1.398       .  A
C813        F820   1.358       .  S
C814        C815   1.408       .  A
C814        H819   1.083       .  S
C815        C816   1.404       .  A
C816        F817   1.357       .  S
C821        C822   1.412       .  A
C821        C826   1.396       .  A
C821        H828   1.081       .  S
C822        C823   1.408       .  A
C823        C824   1.399       .  A
C823        F830   1.358       .  S
C824        C825   1.410       .  A
C824        H829   1.083       .  S
C825        C826   1.405       .  A
C826        F827   1.357       .  S
C831        C832   1.402       .  A
C831        C836   1.398       .  A
C831        H838   1.083       .  S
C832        C833   1.411       .  A
C833        C834   1.393       .  A
C833        F840   1.359       .  S
C834        C835   1.407       .  A
C834        H839   1.083       .  S
C835        C836   1.412       .  A
C836        F837   1.356       .  S
C841        C842   1.405       .  A
C841        C846   1.395       .  A
C841        H848   1.084       .  S
C842        C843   1.407       .  A
C843        C844   1.402       .  A
C843        F850   1.357       .  S
C844        C845   1.406       .  A
C844        H849   1.083       .  S
C845        C846   1.406       .  A
C846        F847   1.358       .  S
C851        C852   1.410       .  A
C851        C856   1.404       .  A
C851        H858   1.083       .  S
C852        C853   1.409       .  A
C853        C854   1.401       .  A
C853        F860   1.357       .  S
C854        C855   1.408       .  A
C854        H859   1.083       .  S
C855        C856   1.410       .  A
C856        F857   1.357       .  S
C861        C862   1.400       .  A
C861        C866   1.394       .  A
C862        C863   1.407       .  A
C863        C864   1.404       .  A
C863        F870   1.357       .  S
C864        C865   1.408       .  A
C864        H869   1.083       .  S
C865        C866   1.413       .  A
C871        C872   1.407       .  A
C871        C876   1.393   1_554  A
C871       H1778   1.084       .  S
C872        C873   1.411   1_554  A
C873        C874   1.398       .  A
C873        F880   1.357   1_556  S
C874        C875   1.404       .  A
C874        H879   1.083       .  S
C875        C876   1.408       .  A
C876        F877   1.358       .  S
H878       C1771   1.084       .  S
C881        C886   1.395       .  A
C881        H888   1.082       .  S
C882        C883   1.408       .  A
C883        C884   1.398   1_554  A
C883        F890   1.358       .  S
C884        H889   1.083       .  S
C885        C886   1.403       .  A
C886        F887   1.357       .  S
C891        C892   1.410   1_556  A
C891        C896   1.398       .  A
C891        H898   1.072       .  S
C893        C894   1.396   1_554  A
C893        F900   1.358       .  S
C894        C895   1.410       .  A
C894        H899   1.080       .  S
C896        F897   1.358       .  S
C901        N902   1.360       .  A
C901        N906   1.367       .  A
C901        C980   1.470       .  S
N902        C903   1.356       .  A
C903        N904   1.358       .  A
C903       C1036   1.468       .  S
N904        C905   1.357       .  A
C905        N906   1.364       .  A
C907        N908   1.364       .  A
C907        N912   1.365       .  A
C907        C974   1.476       .  S
N908        C909   1.357       .  A
C909        N910   1.358       .  A
C909       C1014   1.469       .  S
N910        C911   1.355       .  A
C911        N912   1.363       .  A
C913        N914   1.357       .  A
C913       C1342   1.485       .  S
N914        C915   1.358       .  A
C915        N916   1.357       .  A
C915       C1322   1.487       .  S
C917       N1368   1.352       .  A
C917       C1332   1.487       .  S
N918       C1367   1.352       .  A
O919       Cr937   2.002       .  S
O919        C927   1.261       .  A
O920       Cr937   1.982       .  S
O920        C921   1.258       .  A
C921       C1302   1.496       .  S
C921        O922   1.267       .  A
O922       Cr938   2.021       .  S
O923       Cr938   1.989       .  S
O923        C924   1.269       .  A
C924       C1085   1.463       .  S
C924        O925   1.265       .  A
O925       Cr939   1.985       .  S
O926       Cr939   1.967       .  S
O926        C927   1.255       .  A
C927       C1312   1.476       .  S
O928       Cr937   1.978       .  S
O928       C1386   1.262   1_545  A
O929       Cr937   2.013       .  S
O929        C930   1.268       .  A
C930        O931   1.263       .  A
O931       Cr938   1.998       .  S
O932       Cr938   1.987       .  S
O932        C933   1.257       .  A
C933       C1345   1.481       .  S
C933        O934   1.256   1_545  A
O934       Cr939   1.967   1_565  S
O935      Cr1389   2.003       .  S
O935        C936   1.264       .  A
C936        C985   1.469       .  S
C936       O1378   1.262       .  A
Cr937       O940   1.782       .  S
Cr938       O940   1.790       .  S
Cr939      O1385   2.003   1_545  S
Cr939       O940   1.784       .  S
O941       Cr959   1.997       .  S
O941        C949   1.257       .  A
O942       Cr959   2.001       .  S
O942        C943   1.261       .  A
C943       C1292   1.478       .  S
C943        O944   1.254       .  A
O944       Cr960   1.959       .  S
O945       Cr960   1.990       .  S
O945        C946   1.270       .  A
C946       C1089   1.467       .  S
C946        O947   1.272       .  A
O947       Cr961   1.993       .  S
O948       Cr961   2.002       .  S
O948        C949   1.259       .  A
C949       C1305   1.494       .  S
O950       Cr959   2.024       .  S
O950        C958   1.274       .  A
O951       Cr959   1.980       .  S
O951        C952   1.262       .  A
C952        C987   1.472       .  S
C952        O953   1.265       .  A
O953       Cr960   2.005       .  S
O954       Cr960   1.973       .  S
O954        C955   1.256       .  A
C955       C1325   1.471       .  S
C955        O956   1.250       .  A
O956       Cr961   1.967       .  S
O957       Cr961   1.985       .  S
O957        C958   1.263       .  A
Cr959       O962   1.784       .  S
Cr960       O962   1.783       .  S
Cr961       O962   1.790       .  S
O963       Cr981   1.997       .  S
O963        C971   1.261       .  A
O964       Cr981   1.997       .  S
O964        C965   1.259       .  A
C965       C1315   1.488       .  S
C965        O966   1.257   1_545  A
O966       Cr982   1.992   1_565  S
O967       Cr982   1.998       .  S
O967        C968   1.273       .  A
C968       C1169   1.472       .  S
C968        O969   1.268       .  A
O969       Cr983   1.995       .  S
O970       Cr983   1.968       .  S
O970        C971   1.257       .  A
C971       C1295   1.479       .  S
O972       Cr981   1.981       .  S
O972        C980   1.262       .  A
O973       Cr981   2.012   1_565  S
O973       C1424   1.270       .  A
C974       O1423   1.270       .  A
C974        O975   1.267       .  A
O975      Cr1432   1.993       .  S
O976       Cr982   1.981       .  S
O976        C977   1.253       .  A
C977       C1335   1.481       .  S
C977        O978   1.256       .  A
O978       Cr983   1.980       .  S
O979       Cr983   1.996       .  S
O979        C980   1.263       .  A
Cr981       O984   1.787       .  S
Cr982      O1425   1.993   1_545  S
Cr982       O984   1.785       .  S
Cr983       O984   1.781       .  S
C985        N986   1.365       .  A
C985        N990   1.351       .  A
N986        C987   1.367       .  A
C987        N988   1.360       .  A
N988        C989   1.355       .  A
C989        N990   1.354       .  A
C989       C1058   1.461       .  S
C991        N992   1.355       .  A
C991        N996   1.363       .  A
C991       C1020   1.479       .  S
N992        C993   1.357       .  A
C993        N994   1.357       .  A
C993       C1126   1.467       .  S
N994        C995   1.361       .  A
C995        N996   1.367       .  A
C995       C1070   1.473       .  S
C997       N1002   1.365       .  A
C997       C1042   1.472       .  S
N998        C999   1.358       .  A
C999       N1000   1.352       .  A
C1001      N1002   1.363       .  A
C1001      C1026   1.466       .  S
C1003      N1004   1.357       .  A
C1003      N1008   1.356       .  A
C1003      C1285   1.491       .  S
N1004      C1005   1.354       .  A
C1005      N1006   1.355       .  A
C1005      C1272   1.489       .  S
N1006      C1007   1.356       .  A
C1007      N1008   1.357       .  A
C1007      C1262   1.487       .  S
O1009     Cr1027   2.004       .  S
O1010     Cr1027   1.977       .  S
O1010      C1011   1.253       .  A
C1011      C1252   1.481       .  S
C1011      O1012   1.259       .  A
O1012     Cr1028   1.998       .  S
O1013     Cr1028   2.001       .  S
O1013      C1014   1.274       .  A
C1014      O1015   1.265       .  A
O1015     Cr1029   1.976       .  S
O1016      C1017   1.257       .  A
C1017      C1242   1.487       .  S
O1018     Cr1027   1.974       .  S
O1018      C1026   1.261       .  A
O1019     Cr1027   2.019       .  S
O1019      C1020   1.271       .  A
C1020      O1021   1.263       .  A
O1021     Cr1028   1.992       .  S
O1022     Cr1028   1.959       .  S
O1022      C1023   1.249       .  A
C1023      C1282   1.474       .  S
C1023      O1024   1.259       .  A
O1024     Cr1029   1.981       .  S
O1025     Cr1029   1.997       .  S
O1025      C1026   1.263       .  A
Cr1027     O1030   1.787       .  S
Cr1028     O1030   1.791       .  S
Cr1029     O1030   1.785       .  S
O1031     Cr1049   1.979       .  S
O1031      C1039   1.253       .  A
O1032     Cr1049   1.998       .  S
C1033      C1232   1.486       .  S
C1033      O1034   1.256       .  A
O1035     Cr1050   1.997       .  S
O1035      C1036   1.271       .  A
C1036      O1037   1.274       .  A
O1037     Cr1051   1.993       .  S
O1038     Cr1051   1.995       .  S
O1038      C1039   1.256       .  A
C1039      C1255   1.480       .  S
O1040     Cr1049   2.021       .  S
O1040      C1048   1.273       .  A
O1041     Cr1049   1.970       .  S
O1041      C1042   1.259       .  A
C1042      O1043   1.267       .  A
O1043     Cr1050   2.009       .  S
O1044     Cr1050   1.976       .  S
O1044      C1045   1.257       .  A
C1045      C1265   1.477       .  S
C1045      O1046   1.249       .  A
O1046     Cr1051   1.974       .  S
O1047     Cr1051   1.984       .  S
O1047      C1048   1.266       .  A
C1048      C1077   1.475       .  S
Cr1049     O1052   1.787       .  S
Cr1050     O1052   1.779       .  S
Cr1051     O1052   1.790       .  S
O1053     Cr1071   2.001       .  S
O1053      C1061   1.262       .  A
O1054     Cr1071   2.002       .  S
O1054      C1055   1.257       .  A
C1055      C1245   1.494       .  S
C1055      O1056   1.256       .  A
O1056     Cr1072   1.998       .  S
O1057     Cr1072   1.987       .  S
O1057      C1058   1.271       .  A
C1058      O1059   1.270       .  A
O1059     Cr1073   1.989       .  S
O1060     Cr1073   1.964       .  S
O1060      C1061   1.255       .  A
C1061      C1235   1.488       .  S
O1062     Cr1071   1.990       .  S
O1062      C1070   1.264       .  A
O1063     Cr1071   2.024       .  S
O1063      C1064   1.276       .  A
C1064      C1075   1.478       .  S
C1064      O1065   1.267       .  A
O1065     Cr1072   1.986       .  S
O1066     Cr1072   1.982       .  S
O1066      C1067   1.251       .  A
C1067      C1275   1.483       .  S
C1067      O1068   1.255       .  A
O1068     Cr1073   1.980       .  S
O1069     Cr1073   1.992       .  S
O1069      C1070   1.263       .  A
Cr1071     O1074   1.787       .  S
Cr1072     O1074   1.791       .  S
Cr1073     O1074   1.781       .  S
C1075      N1076   1.363       .  A
C1075      N1080   1.356       .  A
N1076      C1077   1.365       .  A
C1077      N1078   1.362       .  A
N1078      C1079   1.357       .  A
C1079      N1080   1.357       .  A
C1079      C1148   1.468       .  S
C1081      N1082   1.363       .  A
C1081      N1086   1.355   1_554  A
C1081      C1588   1.475       .  S
N1082      C1083   1.367       .  A
C1083      N1084   1.359   1_554  A
C1083      C1110   1.469       .  S
N1084      C1085   1.354       .  A
C1085      N1086   1.355       .  A
C1087      N1088   1.363       .  A
C1087      N1092   1.366   1_556  A
C1087      C1116   1.474   1_556  S
N1088      C1089   1.358       .  A
C1089      N1090   1.355       .  A
N1090      C1091   1.352       .  A
C1091      N1092   1.363   1_556  A
C1091      C1154   1.472   1_556  S
C1093      N1094   1.357       .  A
C1093      N1098   1.358       .  A
C1093      C1205   1.484       .  S
N1094      C1095   1.356       .  A
C1095      N1096   1.357       .  A
C1095      C1225   1.485       .  S
N1096      C1097   1.352       .  A
C1097      N1098   1.351       .  A
C1097      C1212   1.488       .  S
O1099     Cr1117   2.005       .  S
O1099      C1107   1.262       .  A
O1100     Cr1117   1.981       .  S
O1100      C1101   1.255       .  A
C1101      C1182   1.480       .  S
C1101      O1102   1.256       .  A
O1103      C1104   1.269       .  A
C1104      O1105   1.271       .  A
O1106      C1107   1.253       .  A
C1107      C1192   1.478       .  S
O1108      C1116   1.261   1_556  A
O1109      C1110   1.273       .  A
C1110      O1111   1.262       .  A
O1111     Cr1118   1.974       .  S
O1112     Cr1118   1.958       .  S
O1112      C1113   1.249       .  A
C1113      C1222   1.467       .  S
C1113      O1114   1.256       .  A
O1114     Cr1119   1.974       .  S
O1115     Cr1119   2.010       .  S
O1115      C1116   1.267       .  A
Cr1118     O1120   1.788       .  S
Cr1119     O1120   1.776       .  S
O1121     Cr1139   2.005       .  S
O1121      C1129   1.258       .  A
O1122     Cr1139   1.992       .  S
O1122      C1123   1.260       .  A
C1123      C1195   1.480       .  S
C1123      O1124   1.256       .  A
O1124     Cr1140   1.965       .  S
O1125     Cr1140   1.996       .  S
O1125      C1126   1.270       .  A
C1126      O1127   1.271       .  A
O1127     Cr1141   1.990       .  S
O1128     Cr1141   1.998       .  S
O1128      C1129   1.257       .  A
C1129      C1172   1.495       .  S
O1130     Cr1139   2.012       .  S
O1130      C1138   1.273       .  A
O1131     Cr1139   1.990   1_556  S
O1131      C1132   1.264   1_556  A
C1132      C1615   1.471   1_554  S
C1132      O1133   1.263       .  A
O1133     Cr1140   1.992       .  S
O1134     Cr1590   1.979   1_545  S
O1134      C1135   1.255       .  A
C1135      C1215   1.480       .  S
C1135      O1136   1.252       .  A
O1136     Cr1591   1.977   1_545  S
O1137     Cr1141   1.990       .  S
O1137      C1138   1.266       .  A
C1138      C1531   1.475       .  S
Cr1139     O1142   1.787       .  S
Cr1140     O1584   1.979       .  S
Cr1140     O1142   1.780       .  S
Cr1141     O1586   1.977       .  S
Cr1141     O1142   1.788       .  S
O1143     Cr1161   1.969       .  S
O1143      C1151   1.254       .  A
O1144     Cr1161   2.008       .  S
O1144      C1145   1.262       .  A
C1145      C1175   1.490       .  S
C1145      O1146   1.256       .  A
O1146     Cr1162   1.972       .  S
O1147     Cr1162   1.991       .  S
O1147      C1148   1.268       .  A
C1148      O1149   1.272       .  A
O1149     Cr1163   1.994       .  S
O1150     Cr1163   2.005       .  S
O1150      C1151   1.260       .  A
C1151      C1185   1.481       .  S
O1152     Cr1161   2.025       .  S
O1152      C1160   1.272       .  A
O1153     Cr1161   1.974   1_556  S
O1153      C1154   1.262   1_556  A
C1154      O1155   1.266       .  A
O1155     Cr1162   2.010       .  S
O1156     Cr1162   1.969       .  S
O1156      C1157   1.256       .  A
C1157      C1202   1.479       .  S
C1157      O1158   1.252       .  A
O1158     Cr1163   1.970       .  S
O1159     Cr1163   1.994       .  S
O1159      C1160   1.265       .  A
C1160      C1167   1.485   1_554  S
Cr1161     O1164   1.784       .  S
Cr1162     O1164   1.786       .  S
Cr1163     O1164   1.792       .  S
C1165      N1166   1.366   1_556  A
C1165      N1170   1.360       .  A
C1165      C1582   1.471   1_556  S
N1166      C1167   1.363   1_554  A
C1167      N1168   1.359       .  A
N1168      C1169   1.362       .  A
C1169      N1170   1.357       .  A
C1171      C1172   1.409       .  A
C1171      C1176   1.408       .  A
C1171      H1178   1.083   1_554  S
C1172      C1173   1.412       .  A
C1173      C1174   1.398       .  A
C1173      F1180   1.358       .  S
C1174      C1175   1.404       .  A
C1174      H1179   1.083       .  S
C1175      C1176   1.411       .  A
C1176      F1177   1.357   1_554  S
C1181      C1182   1.407       .  A
C1181      C1186   1.398       .  A
C1181      H1188   1.083       .  S
C1182      C1183   1.407       .  A
C1183      C1184   1.395       .  A
C1183      F1190   1.357   1_554  S
C1184      C1185   1.406       .  A
C1184      H1189   1.083       .  S
C1185      C1186   1.408       .  A
C1186      F1187   1.358       .  S
C1191      C1192   1.404       .  A
C1191      C1196   1.391       .  A
C1191      H1198   1.084       .  S
C1192      C1193   1.407       .  A
C1193      C1194   1.403       .  A
C1193      F1200   1.357   1_554  S
C1194      C1195   1.408       .  A
C1194      H1199   1.083   1_554  S
C1195      C1196   1.406       .  A
C1196      F1197   1.358       .  S
C1201      C1202   1.410       .  A
C1201      C1206   1.393       .  A
C1201      H1208   1.083       .  S
C1202      C1203   1.406       .  A
C1203      C1204   1.398       .  A
C1203      F1210   1.357       .  S
C1204      C1205   1.410       .  A
C1204      H1209   1.080       .  S
C1205      C1206   1.405       .  A
C1206      F1207   1.358       .  S
C1211      C1212   1.413       .  A
C1211      C1216   1.398       .  A
C1211      H1218   1.082       .  S
C1212      C1213   1.408       .  A
C1213      C1214   1.395       .  A
C1213      F1220   1.358       .  S
C1214      C1215   1.408       .  A
C1214      H1219   1.083       .  S
C1215      C1216   1.405       .  A
C1216      F1217   1.358       .  S
C1221      C1222   1.402       .  A
C1221      C1226   1.397       .  A
C1221      H1228   1.084       .  S
C1222      C1223   1.408       .  A
C1223      C1224   1.390       .  A
C1223      F1230   1.358       .  S
C1224      C1225   1.406       .  A
C1224      H1229   1.084       .  S
C1225      C1226   1.412       .  A
C1226      F1227   1.356       .  S
C1231      C1232   1.405       .  A
C1231      C1686   1.394       .  A
C1231      H1238   1.083       .  S
C1232      C1233   1.410       .  A
C1233      C1684   1.404       .  A
C1233      F1240   1.357       .  S
C1234      C1683   1.404       .  A
C1234      C1235   1.408       .  A
C1234      H1239   1.083       .  S
C1235      C1236   1.410       .  A
C1236      C1681   1.394       .  A
C1236      F1237   1.358       .  S
C1241      C1242   1.403       .  A
C1241      C1246   1.398       .  A
C1241      H1248   1.083       .  S
C1242      C1243   1.410       .  A
C1243      C1244   1.407       .  A
C1243      F1250   1.356       .  S
C1244      C1245   1.408       .  A
C1244      H1249   1.083       .  S
C1245      C1246   1.412       .  A
C1246      F1247   1.357       .  S
C1251      C1702   1.404   1_545  A
C1251      C1256   1.394       .  A
C1251      H1258   1.083       .  S
C1252      C1701   1.404       .  A
C1252      C1253   1.409       .  A
C1253      C1704   1.398       .  A
C1253      F1260   1.356       .  S
C1254      C1703   1.398   1_545  A
C1254      C1255   1.405       .  A
C1254      H1259   1.083       .  S
C1255      C1256   1.409       .  A
C1256      F1257   1.357       .  S
C1261      C1262   1.409       .  A
C1261      C1266   1.395       .  A
C1261      H1268   1.081       .  S
C1262      C1263   1.410       .  A
C1263      C1264   1.398       .  A
C1263      F1270   1.358       .  S
C1264      C1265   1.408       .  A
C1264      H1269   1.083       .  S
C1265      C1266   1.404       .  A
C1266      F1267   1.357       .  S
C1271      C1272   1.412       .  A
C1271      C1276   1.396       .  A
C1271      H1278   1.081       .  S
C1272      C1273   1.408       .  A
C1273      C1274   1.399       .  A
C1273      F1280   1.358       .  S
C1274      C1275   1.410       .  A
C1274      H1279   1.083       .  S
C1275      C1276   1.405       .  A
C1276      F1277   1.357       .  S
C1281      C1282   1.402       .  A
C1281      C1286   1.398       .  A
C1281      H1288   1.083       .  S
C1282      C1283   1.411       .  A
C1283      C1284   1.393       .  A
C1283      F1290   1.359       .  S
C1284      C1285   1.407       .  A
C1284      H1289   1.083       .  S
C1285      C1286   1.412       .  A
C1286      F1287   1.356       .  S
C1291      C1292   1.405       .  A
C1291      C1296   1.395       .  A
C1291      H1298   1.084       .  S
C1292      C1293   1.407       .  A
C1293      C1294   1.402       .  A
C1293      F1300   1.357       .  S
C1294      C1295   1.406       .  A
C1294      H1299   1.083       .  S
C1295      C1296   1.406       .  A
C1296      F1297   1.358       .  S
C1301      C1302   1.410       .  A
C1301      C1306   1.404       .  A
C1301      H1308   1.083       .  S
C1302      C1303   1.409       .  A
C1303      C1304   1.401       .  A
C1303      F1310   1.357       .  S
C1304      C1305   1.408       .  A
C1304      H1309   1.083       .  S
C1305      C1306   1.410       .  A
C1306      F1307   1.357       .  S
C1311      C1312   1.400   1_565  A
C1311      C1316   1.394       .  A
C1311      H1768   1.084       .  S
C1312      C1313   1.407       .  A
C1313      C1314   1.404       .  A
C1313      F1320   1.357       .  S
C1314      C1315   1.408       .  A
C1314      H1319   1.083       .  S
C1315      C1316   1.413   1_545  A
C1316      F1767   1.358       .  S
F1317      C1766   1.358       .  S
H1318      C1761   1.084       .  S
C1321      C1322   1.407       .  A
C1321      C1326   1.393   1_554  A
C1322      C1323   1.411   1_554  A
C1323      C1324   1.398       .  A
C1323      F1330   1.357   1_556  S
C1324      C1325   1.404       .  A
C1324      H1329   1.083       .  S
C1325      C1326   1.408       .  A
C1326      F1327   1.358       .  S
C1331      C1782   1.413   1_546  A
C1331      C1336   1.395       .  A
C1331      H1338   1.082       .  S
C1332      C1781   1.413   1_554  A
C1332      C1333   1.408       .  A
C1333      C1334   1.398   1_554  A
C1333      F1340   1.358       .  S
C1334      C1785   1.410       .  A
C1334      H1339   1.083       .  S
C1335      C1784   1.410   1_545  A
C1335      C1336   1.403       .  A
C1336      F1337   1.357       .  S
C1341      C1342   1.411   1_556  A
C1341      C1346   1.398       .  A
C1341      H1348   1.070       .  S
C1342      C1793   1.405       .  A
C1343      C1792   1.405   1_545  A
C1343      C1344   1.396   1_554  A
C1343      F1350   1.358       .  S
C1344      C1345   1.410       .  A
C1344      H1349   1.081       .  S
C1345      C1796   1.406   1_545  A
C1346      C1795   1.406       .  A
C1346      F1347   1.358       .  S
C1351      N1352   1.360       .  A
C1351      N1356   1.367       .  A
C1351      C1430   1.470       .  S
N1352      C1353   1.356       .  A
C1353      N1354   1.358       .  A
C1353      C1486   1.468       .  S
N1354      C1355   1.357       .  A
C1355      N1356   1.364       .  A
C1357      N1358   1.364       .  A
C1357      N1362   1.365       .  A
C1357      C1424   1.476       .  S
N1358      C1359   1.357       .  A
C1359      N1360   1.358       .  A
C1359      C1464   1.469       .  S
N1360      C1361   1.355       .  A
C1361      N1362   1.363       .  A
C1363      N1364   1.357       .  A
C1363      C1792   1.485       .  S
N1364      C1365   1.358       .  A
C1365      N1366   1.357       .  A
C1365      C1772   1.487       .  S
C1367      C1782   1.487       .  S
O1369     Cr1387   2.002       .  S
O1369      C1377   1.261       .  A
O1370     Cr1387   1.982       .  S
O1370      C1371   1.258       .  A
C1371      C1752   1.496       .  S
C1371      O1372   1.267       .  A
O1372     Cr1388   2.021       .  S
O1373     Cr1388   1.988       .  S
O1373      C1374   1.269       .  A
C1374      C1535   1.463       .  S
C1374      O1375   1.265       .  A
O1375     Cr1389   1.985       .  S
O1376     Cr1389   1.967       .  S
O1376      C1377   1.255       .  A
C1377      C1762   1.476       .  S
O1378     Cr1387   1.978       .  S
O1379     Cr1387   2.013       .  S
O1379      C1380   1.268       .  A
C1380      O1381   1.263       .  A
O1381     Cr1388   1.998       .  S
O1382     Cr1388   1.987       .  S
O1382      C1383   1.257       .  A
C1383      C1795   1.481       .  S
C1383      O1384   1.256       .  A
O1384     Cr1389   1.967       .  S
O1385      C1386   1.264       .  A
C1386      C1435   1.469       .  S
Cr1387     O1390   1.782       .  S
Cr1388     O1390   1.790       .  S
Cr1389     O1390   1.784       .  S
O1391     Cr1409   1.997       .  S
O1391      C1399   1.257       .  A
O1392     Cr1409   2.001       .  S
O1392      C1393   1.262       .  A
C1393      C1742   1.478       .  S
C1393      O1394   1.254       .  A
O1394     Cr1410   1.959       .  S
O1395     Cr1410   1.990       .  S
O1395      C1396   1.270       .  A
C1396      C1539   1.466       .  S
C1396      O1397   1.272       .  A
O1397     Cr1411   1.993       .  S
O1398     Cr1411   2.002       .  S
O1398      C1399   1.259       .  A
C1399      C1755   1.494       .  S
O1400     Cr1409   2.024       .  S
O1400      C1408   1.274       .  A
O1401     Cr1409   1.980       .  S
O1401      C1402   1.262       .  A
C1402      C1437   1.472       .  S
C1402      O1403   1.265       .  A
O1403     Cr1410   2.005       .  S
O1404     Cr1410   1.973       .  S
O1404      C1405   1.256       .  A
C1405      C1775   1.471       .  S
C1405      O1406   1.250       .  A
O1406     Cr1411   1.967       .  S
O1407     Cr1411   1.985       .  S
O1407      C1408   1.263       .  A
Cr1409     O1412   1.784       .  S
Cr1410     O1412   1.783       .  S
Cr1411     O1412   1.790       .  S
O1413     Cr1431   1.997       .  S
O1413      C1421   1.261       .  A
O1414     Cr1431   1.997       .  S
O1414      C1415   1.259       .  A
C1415      C1765   1.488       .  S
C1415      O1416   1.257       .  A
O1416     Cr1432   1.992       .  S
O1417     Cr1432   1.998       .  S
O1417      C1418   1.273       .  A
C1418      C1619   1.472       .  S
C1418      O1419   1.268       .  A
O1419     Cr1433   1.995       .  S
O1420     Cr1433   1.968       .  S
O1420      C1421   1.257       .  A
C1421      C1745   1.479       .  S
O1422     Cr1431   1.981       .  S
O1422      C1430   1.262       .  A
O1423     Cr1431   2.011       .  S
C1424      O1425   1.267       .  A
O1426     Cr1432   1.981       .  S
O1426      C1427   1.253       .  A
C1427      C1785   1.481       .  S
C1427      O1428   1.256       .  A
O1428     Cr1433   1.980       .  S
O1429     Cr1433   1.996       .  S
O1429      C1430   1.263       .  A
Cr1431     O1434   1.787       .  S
Cr1432     O1434   1.785       .  S
Cr1433     O1434   1.781       .  S
C1435      N1436   1.365       .  A
C1435      N1440   1.351       .  A
N1436      C1437   1.367       .  A
C1437      N1438   1.360       .  A
N1438      C1439   1.355       .  A
C1439      N1440   1.354       .  A
C1439      C1508   1.460       .  S
C1441      N1442   1.355       .  A
C1441      N1446   1.363       .  A
C1441      C1470   1.479       .  S
N1442      C1443   1.357       .  A
C1443      N1444   1.357       .  A
C1443      C1576   1.467       .  S
N1444      C1445   1.361       .  A
C1445      N1446   1.367       .  A
C1445      C1520   1.474       .  S
C1447      N1452   1.365       .  A
C1447      C1492   1.472       .  S
N1448      C1449   1.358       .  A
C1449      N1450   1.352       .  A
C1451      N1452   1.363       .  A
C1451      C1476   1.466       .  S
C1453      N1454   1.357       .  A
C1453      N1458   1.356       .  A
C1453      C1735   1.490       .  S
N1454      C1455   1.354       .  A
C1455      N1456   1.355       .  A
C1455      C1722   1.489       .  S
N1456      C1457   1.356       .  A
C1457      N1458   1.357       .  A
C1457      C1712   1.487       .  S
O1459     Cr1477   2.003       .  S
O1460     Cr1477   1.977       .  S
O1460      C1461   1.253       .  A
C1461      C1702   1.481       .  S
C1461      O1462   1.259       .  A
O1462     Cr1478   1.998       .  S
O1463     Cr1478   2.001       .  S
O1463      C1464   1.274       .  A
C1464      O1465   1.265       .  A
O1465     Cr1479   1.977       .  S
O1466      C1467   1.257       .  A
C1467      C1692   1.487       .  S
O1468     Cr1477   1.974       .  S
O1468      C1476   1.261       .  A
O1469     Cr1477   2.019       .  S
O1469      C1470   1.271       .  A
C1470      O1471   1.263       .  A
O1471     Cr1478   1.992       .  S
O1472     Cr1478   1.959       .  S
O1472      C1473   1.249       .  A
C1473      C1732   1.474       .  S
C1473      O1474   1.259       .  A
O1474     Cr1479   1.981       .  S
O1475     Cr1479   1.997       .  S
O1475      C1476   1.263       .  A
Cr1477     O1480   1.787       .  S
Cr1478     O1480   1.791       .  S
Cr1479     O1480   1.785       .  S
O1481     Cr1499   1.979       .  S
O1481      C1489   1.253       .  A
O1482     Cr1499   1.998       .  S
C1483      C1682   1.486       .  S
C1483      O1484   1.256       .  A
O1485     Cr1500   1.997       .  S
O1485      C1486   1.271       .  A
C1486      O1487   1.274       .  A
O1487     Cr1501   1.993       .  S
O1488     Cr1501   1.995       .  S
O1488      C1489   1.256       .  A
C1489      C1705   1.480       .  S
O1490     Cr1499   2.021       .  S
O1490      C1498   1.273       .  A
O1491     Cr1499   1.970       .  S
O1491      C1492   1.259       .  A
C1492      O1493   1.267       .  A
O1493     Cr1500   2.010       .  S
O1494     Cr1500   1.976       .  S
O1494      C1495   1.257       .  A
C1495      C1715   1.477       .  S
C1495      O1496   1.249       .  A
O1496     Cr1501   1.974       .  S
O1497     Cr1501   1.984       .  S
O1497      C1498   1.266       .  A
C1498      C1527   1.475       .  S
Cr1499     O1502   1.787       .  S
Cr1500     O1502   1.779       .  S
Cr1501     O1502   1.790       .  S
O1503     Cr1521   2.001       .  S
O1503      C1511   1.262       .  A
O1504     Cr1521   2.002       .  S
O1504      C1505   1.257       .  A
C1505      C1695   1.494       .  S
C1505      O1506   1.256       .  A
O1506     Cr1522   1.998       .  S
O1507     Cr1522   1.987       .  S
O1507      C1508   1.271       .  A
C1508      O1509   1.270       .  A
O1509     Cr1523   1.989       .  S
O1510     Cr1523   1.964       .  S
O1510      C1511   1.255       .  A
C1511      C1685   1.488       .  S
O1512     Cr1521   1.990       .  S
O1512      C1520   1.264       .  A
O1513     Cr1521   2.024       .  S
O1513      C1514   1.276       .  A
C1514      C1525   1.478       .  S
C1514      O1515   1.267       .  A
O1515     Cr1522   1.986       .  S
O1516     Cr1522   1.982       .  S
O1516      C1517   1.251       .  A
C1517      C1725   1.483       .  S
C1517      O1518   1.256       .  A
O1518     Cr1523   1.980       .  S
O1519     Cr1523   1.992       .  S
O1519      C1520   1.263       .  A
Cr1521     O1524   1.787       .  S
Cr1522     O1524   1.791       .  S
Cr1523     O1524   1.781       .  S
C1525      N1526   1.363       .  A
C1525      N1530   1.356       .  A
N1526      C1527   1.365       .  A
C1527      N1528   1.362       .  A
N1528      C1529   1.357       .  A
C1529      N1530   1.357       .  A
C1529      C1598   1.468       .  S
C1531      N1532   1.363       .  A
C1531      N1536   1.355   1_554  A
N1532      C1533   1.367       .  A
C1533      N1534   1.359   1_554  A
C1533      C1560   1.469       .  S
N1534      C1535   1.353       .  A
C1535      N1536   1.355       .  A
C1537      N1538   1.363       .  A
C1537      N1542   1.366   1_556  A
C1537      C1566   1.474   1_556  S
N1538      C1539   1.358       .  A
C1539      N1540   1.355       .  A
N1540      C1541   1.352       .  A
C1541      N1542   1.363   1_556  A
C1541      C1604   1.472   1_556  S
C1543      N1544   1.357       .  A
C1543      N1548   1.358       .  A
C1543      C1655   1.484       .  S
N1544      C1545   1.356       .  A
C1545      N1546   1.357       .  A
C1545      C1675   1.485       .  S
N1546      C1547   1.352       .  A
C1547      N1548   1.351       .  A
C1547      C1662   1.488       .  S
O1549     Cr1567   2.005       .  S
O1549      C1557   1.262       .  A
O1550     Cr1567   1.981       .  S
O1550      C1551   1.255       .  A
C1551      C1632   1.480       .  S
C1551      O1552   1.256       .  A
O1553      C1554   1.269       .  A
C1554      O1555   1.271       .  A
O1556      C1557   1.253       .  A
C1557      C1642   1.478       .  S
O1558      C1566   1.261   1_556  A
O1559      C1560   1.273       .  A
C1560      O1561   1.262       .  A
O1561     Cr1568   1.974       .  S
O1562     Cr1568   1.958       .  S
O1562      C1563   1.249       .  A
C1563      C1672   1.467       .  S
C1563      O1564   1.256       .  A
O1564     Cr1569   1.974       .  S
O1565     Cr1569   2.010       .  S
O1565      C1566   1.267       .  A
Cr1568     O1570   1.788       .  S
Cr1569     O1570   1.776       .  S
O1571     Cr1589   2.005       .  S
O1571      C1579   1.258       .  A
O1572     Cr1589   1.992       .  S
O1572      C1573   1.260       .  A
C1573      C1645   1.480       .  S
C1573      O1574   1.256       .  A
O1574     Cr1590   1.965       .  S
O1575     Cr1590   1.996       .  S
O1575      C1576   1.270       .  A
C1576      O1577   1.271       .  A
O1577     Cr1591   1.990       .  S
O1578     Cr1591   1.998       .  S
O1578      C1579   1.257       .  A
C1579      C1622   1.495       .  S
O1580     Cr1589   2.012   1_545  S
O1580      C1588   1.273       .  A
O1581     Cr1589   1.989   1_546  S
O1581      C1582   1.264   1_556  A
C1582      O1583   1.263       .  A
O1583     Cr1590   1.992   1_545  S
O1584      C1585   1.255       .  A
C1585      C1665   1.480       .  S
C1585      O1586   1.252       .  A
O1587     Cr1591   1.990   1_545  S
O1587      C1588   1.266       .  A
Cr1589     O1592   1.787       .  S
Cr1590     O1592   1.780       .  S
Cr1591     O1592   1.787       .  S
O1593     Cr1611   1.969       .  S
O1593      C1601   1.254       .  A
O1594     Cr1611   2.008       .  S
O1594      C1595   1.262       .  A
C1595      C1625   1.490       .  S
C1595      O1596   1.256       .  A
O1596     Cr1612   1.972       .  S
O1597     Cr1612   1.991       .  S
O1597      C1598   1.268       .  A
C1598      O1599   1.272       .  A
O1599     Cr1613   1.994       .  S
O1600     Cr1613   2.005       .  S
O1600      C1601   1.260       .  A
C1601      C1635   1.481       .  S
O1602     Cr1611   2.025       .  S
O1602      C1610   1.272       .  A
O1603     Cr1611   1.974   1_556  S
O1603      C1604   1.262   1_556  A
C1604      O1605   1.266       .  A
O1605     Cr1612   2.010       .  S
O1606     Cr1612   1.969       .  S
O1606      C1607   1.256       .  A
C1607      C1652   1.478       .  S
C1607      O1608   1.252       .  A
O1608     Cr1613   1.970       .  S
O1609     Cr1613   1.994       .  S
O1609      C1610   1.265       .  A
C1610      C1617   1.485   1_554  S
Cr1611     O1614   1.784       .  S
Cr1612     O1614   1.786       .  S
Cr1613     O1614   1.792       .  S
C1615      N1616   1.366   1_556  A
C1615      N1620   1.360       .  A
N1616      C1617   1.363   1_554  A
C1617      N1618   1.359       .  A
N1618      C1619   1.362       .  A
C1619      N1620   1.357       .  A
C1621      C1622   1.409       .  A
C1621      C1626   1.408       .  A
C1621      H1628   1.083   1_554  S
C1622      C1623   1.412       .  A
C1623      C1624   1.398       .  A
C1623      F1630   1.358       .  S
C1624      C1625   1.404       .  A
C1624      H1629   1.083       .  S
C1625      C1626   1.411       .  A
C1626      F1627   1.357   1_554  S
C1631      C1632   1.407       .  A
C1631      C1636   1.398       .  A
C1631      H1638   1.083       .  S
C1632      C1633   1.407       .  A
C1633      C1634   1.395       .  A
C1633      F1640   1.357   1_554  S
C1634      C1635   1.406       .  A
C1634      H1639   1.083       .  S
C1635      C1636   1.408       .  A
C1636      F1637   1.358       .  S
C1641      C1642   1.404       .  A
C1641      C1646   1.391       .  A
C1641      H1648   1.084       .  S
C1642      C1643   1.407       .  A
C1643      C1644   1.403       .  A
C1643      F1650   1.357   1_554  S
C1644      C1645   1.408       .  A
C1644      H1649   1.083   1_554  S
C1645      C1646   1.406       .  A
C1646      F1647   1.358       .  S
C1651      C1652   1.410       .  A
C1651      C1656   1.393       .  A
C1651      H1658   1.083       .  S
C1652      C1653   1.406       .  A
C1653      C1654   1.398       .  A
C1653      F1660   1.357       .  S
C1654      C1655   1.410       .  A
C1654      H1659   1.080       .  S
C1655      C1656   1.405       .  A
C1656      F1657   1.358       .  S
C1661      C1662   1.413       .  A
C1661      C1666   1.398       .  A
C1661      H1668   1.082       .  S
C1662      C1663   1.408       .  A
C1663      C1664   1.395       .  A
C1663      F1670   1.358       .  S
C1664      C1665   1.408       .  A
C1664      H1669   1.083       .  S
C1665      C1666   1.405       .  A
C1666      F1667   1.358       .  S
C1671      C1672   1.402       .  A
C1671      C1676   1.397       .  A
C1671      H1678   1.084       .  S
C1672      C1673   1.408       .  A
C1673      C1674   1.390       .  A
C1673      F1680   1.358       .  S
C1674      C1675   1.406       .  A
C1674      H1679   1.084       .  S
C1675      C1676   1.412       .  A
C1676      F1677   1.356       .  S
C1681      C1682   1.405       .  A
C1681      H1688   1.083       .  S
C1682      C1683   1.410       .  A
C1683      F1690   1.357       .  S
C1684      C1685   1.408   1_545  A
C1684      H1689   1.083   1_545  S
C1685      C1686   1.410   1_565  A
C1686      F1687   1.358       .  S
C1691      C1692   1.403       .  A
C1691      C1696   1.398       .  A
C1691      H1698   1.083       .  S
C1692      C1693   1.410       .  A
C1693      C1694   1.407       .  A
C1693      F1700   1.356       .  S
C1694      C1695   1.408       .  A
C1694      H1699   1.083       .  S
C1695      C1696   1.412       .  A
C1696      F1697   1.357       .  S
C1701      C1706   1.394       .  A
C1701      H1708   1.083       .  S
C1702      C1703   1.409       .  A
C1703      F1710   1.356       .  S
C1704      C1705   1.405       .  A
C1704      H1709   1.083       .  S
C1705      C1706   1.409       .  A
C1706      F1707   1.357       .  S
C1711      C1712   1.409       .  A
C1711      C1716   1.395       .  A
C1711      H1718   1.081       .  S
C1712      C1713   1.410       .  A
C1713      C1714   1.398       .  A
C1713      F1720   1.358       .  S
C1714      C1715   1.408       .  A
C1714      H1719   1.083       .  S
C1715      C1716   1.404       .  A
C1716      F1717   1.357       .  S
C1721      C1722   1.412       .  A
C1721      C1726   1.396       .  A
C1721      H1728   1.081       .  S
C1722      C1723   1.408       .  A
C1723      C1724   1.399       .  A
C1723      F1730   1.358       .  S
C1724      C1725   1.410       .  A
C1724      H1729   1.083       .  S
C1725      C1726   1.405       .  A
C1726      F1727   1.357       .  S
C1731      C1732   1.402       .  A
C1731      C1736   1.398       .  A
C1731      H1738   1.083       .  S
C1732      C1733   1.411       .  A
C1733      C1734   1.393       .  A
C1733      F1740   1.359       .  S
C1734      C1735   1.407       .  A
C1734      H1739   1.083       .  S
C1735      C1736   1.412       .  A
C1736      F1737   1.356       .  S
C1741      C1742   1.405       .  A
C1741      C1746   1.395       .  A
C1741      H1748   1.084       .  S
C1742      C1743   1.407       .  A
C1743      C1744   1.402       .  A
C1743      F1750   1.357       .  S
C1744      C1745   1.406       .  A
C1744      H1749   1.083       .  S
C1745      C1746   1.406       .  A
C1746      F1747   1.358       .  S
C1751      C1752   1.410       .  A
C1751      C1756   1.404       .  A
C1751      H1758   1.083       .  S
C1752      C1753   1.409       .  A
C1753      C1754   1.401       .  A
C1753      F1760   1.357       .  S
C1754      C1755   1.408       .  A
C1754      H1759   1.083       .  S
C1755      C1756   1.410       .  A
C1756      F1757   1.357       .  S
C1761      C1762   1.400       .  A
C1761      C1766   1.394       .  A
C1762      C1763   1.407       .  A
C1763      C1764   1.404       .  A
C1763      F1770   1.357       .  S
C1764      C1765   1.408       .  A
C1764      H1769   1.083       .  S
C1765      C1766   1.413       .  A
C1771      C1772   1.407       .  A
C1771      C1776   1.393   1_554  A
C1772      C1773   1.411   1_554  A
C1773      C1774   1.398       .  A
C1773      F1780   1.357   1_556  S
C1774      C1775   1.404       .  A
C1774      H1779   1.083       .  S
C1775      C1776   1.408       .  A
C1776      F1777   1.358       .  S
C1781      C1786   1.395       .  A
C1781      H1788   1.082       .  S
C1782      C1783   1.408       .  A
C1783      C1784   1.398   1_554  A
C1783      F1790   1.358       .  S
C1784      H1789   1.083       .  S
C1785      C1786   1.403       .  A
C1786      F1787   1.357       .  S
C1791      C1792   1.410   1_556  A
C1791      C1796   1.398       .  A
C1791      H1798   1.072       .  S
C1793      C1794   1.396   1_554  A
C1793      F1800   1.358       .  S
C1794      C1795   1.410       .  A
C1794      H1799   1.080       .  S
C1796      F1797   1.358       .  S
