geometry optimzed in LAMMPS
_audit_creation_date              2020-11-30 
_audit_creation_method            'lammps2cif' 
_symmetry_space_group_name_H-M    'P1' 
_symmetry_Int_Tables_number       1 
_symmetry_cell_setting            triclinic 
loop_ 
_symmetry_equiv_pos_as_xyz 
  x,y,z 
_cell_length_a                    25.8547122 
_cell_length_b                    25.85466369025482 
_cell_length_c                    27.805864206959413 
_cell_angle_alpha                 90.37907054359675 
_cell_angle_beta                  89.61751272622527 
_cell_angle_gamma                 119.92634894983847 
loop_ 
_atom_site_label 
_atom_site_type_symbol 
_atom_site_fract_x 
_atom_site_fract_y 
_atom_site_fract_z 
_atom_site_charge 
C1          C  0.99143129  0.31810091  0.30979648     0.88000
C2          C  0.04772153  0.31325566  0.31016153    -0.52200
C3          C  0.05694150  0.28843921  0.26978990     0.11000
C4          C  0.00632598  0.27039175  0.23164454     0.21900
C5          C  0.99567985  0.35260113  0.26432285    -0.52900
C6          C  0.00300126  0.32822560  0.22318033     0.11100
C7          C  0.94045393  0.25448573  0.30068110    -0.52500
C8          C  0.94711793  0.22870566  0.25951487     0.11600
H9          H  0.07800356  0.32802330  0.34064223     0.16100
H10         H  0.01233937  0.25018723  0.19824337     0.01900
H11         H  0.99135813  0.39234244  0.26449759     0.16400
H12         H  0.90091773  0.23348244  0.32332966     0.16200
C13         C  0.30063451  0.32262400  0.28500882     0.88000
C14         C  0.28947009  0.25882971  0.27887733    -0.52200
C15         C  0.25848385  0.22994574  0.23800599     0.11000
C16         C  0.24136666  0.26929022  0.20707569     0.21900
C17         C  0.33178920  0.35464419  0.23883677    -0.52900
C18         C  0.30167169  0.32745837  0.19799836     0.11100
C19         C  0.23868785  0.31656813  0.28276197    -0.52500
C20         C  0.20628279  0.28832931  0.24223183     0.11600
H21         H  0.30706811  0.23932748  0.30381143     0.16100
H22         H  0.21682989  0.24710716  0.17364959     0.01900
H23         H  0.37492702  0.39543998  0.23841329     0.16400
H24         H  0.22320079  0.33543432  0.31047463     0.16200
C25         C  0.29329218  0.01920820  0.28836716     0.88000
C26         C  0.23122759  0.96490184  0.28226034    -0.52200
C27         C  0.19941832  0.96789742  0.24403724     0.11000
C28         C  0.23514433  0.02792504  0.21525070     0.21900
C29         C  0.32483953  0.02595803  0.24059400    -0.52900
C30         C  0.29546303  0.03047743  0.20187494     0.11100
C31         C  0.28305620  0.07215637  0.29181393    -0.52500
C32         C  0.25308777  0.07824836  0.25408469     0.11600
H33         H  0.21335086  0.92801405  0.30748030     0.16100
H34         H  0.21059876  0.03176375  0.18414174     0.01900
H35         H  0.36729537  0.02696745  0.23756887     0.16400
H36         H  0.29821214  0.10264883  0.32233495     0.16200
C37         C  0.99242663  0.72236021  0.30753668     0.88000
C38         C  0.94735443  0.74390702  0.30778313    -0.52200
C39         C  0.94908342  0.77538909  0.26791673     0.11000
C40         C  0.99855687  0.78370241  0.23097235     0.21900
C41         C  0.98156842  0.68746346  0.26085204    -0.52900
C42         C  0.98503829  0.71878950  0.22065879     0.11100
C43         C  0.05309965  0.77869205  0.30065860    -0.52500
C44         C  0.05763736  0.81174849  0.26079969     0.11600
H45         H  0.91561956  0.73409347  0.33696908     0.16100
H46         H  0.00104841  0.80924664  0.19825945     0.01900
H47         H  0.97322320  0.64187664  0.25955362     0.16400
H48         H  0.09053215  0.79021807  0.32445565     0.16200
C49         C  0.70906467  0.72858801  0.28905552     0.88000
C50         C  0.71163364  0.78871971  0.28272697    -0.52200
C51         C  0.73919512  0.81808275  0.24109415     0.11000
C52         C  0.76167115  0.78290766  0.20952983     0.21900
C53         C  0.67879795  0.69286908  0.24377121    -0.52900
C54         C  0.70571567  0.72064595  0.20210706     0.11100
C55         C  0.77391460  0.74280058  0.28519528    -0.52500
C56         C  0.80231988  0.77109183  0.24348455     0.11600
H57         H  0.69125071  0.80521211  0.30824857     0.16100
H58         H  0.78369843  0.80545655  0.17540932     0.01900
H59         H  0.63912705  0.64886401  0.24458778     0.16400
H60         H  0.79452755  0.72870106  0.31213416     0.16200
C61         C  0.70513640  0.03031115  0.20042485     0.88000
C62         C  0.71021557  0.97349734  0.20299164    -0.52200
C63         C  0.73596682  0.96879299  0.24457232     0.11000
C64         C  0.75404623  0.02243045  0.27958931     0.21900
C65         C  0.67129049  0.02950879  0.24603042    -0.52900
C66         C  0.69630946  0.02562136  0.28757260     0.11100
C67         C  0.76914447  0.08226665  0.20771769    -0.52500
C68         C  0.79541949  0.07875134  0.24935096     0.11600
H69         H  0.69298600  0.93933906  0.17520192     0.16100
H70         H  0.77447555  0.01918260  0.31362848     0.01900
H71         H  0.63078815  0.03246352  0.24549326     0.16400
H72         H  0.79020671  0.11993519  0.18336349     0.16200
O73         O  0.43597331  0.01634585  0.40406778    -0.78600
O74         O  0.60599733  0.14631715  0.04123446    -0.78600
O75         O  0.48288599  0.11050344  0.96367946    -0.78600
O76         O  0.62697448  0.02779275  0.45260838    -0.78600
O77         O  0.50177958  0.14418841  0.03773279    -0.78700
O78         O  0.55379062  0.01952993  0.40553002    -0.78600
O79         O  0.59795073  0.11503328  0.96682356    -0.78600
O80         O  0.36347084  0.01671666  0.44775370    -0.78600
C81         C  0.38532591  0.01535608  0.40710730     1.11100
C82         C  0.62121292  0.15630634  0.99742781     1.11000
C83         C  0.49892611  0.15266802  0.99322038     1.11100
C84         C  0.60587891  0.02386163  0.41082975     1.11000
O85         O  0.49190828  0.91121592  0.46196902    -0.78600
O86         O  0.44609151  0.04175861  0.10104645    -0.78700
O87         O  0.37633652  0.95408458  0.01928161    -0.78600
O88         O  0.62674654  0.06285998  0.04860393    -0.78600
O89         O  0.55760910  0.04362868  0.10343387    -0.78600
O90         O  0.39020579  0.90817478  0.46038610    -0.78600
O91         O  0.55189564  0.95873989  0.02163829    -0.78600
O92         O  0.39813872  0.05815447  0.04364849    -0.78600
Co93       Co  0.47179859  0.97253010  0.44208266     1.51500
Co94       Co  0.52528444  0.08842495  0.06768863     1.51700
Co95       Co  0.43022753  0.02993396  0.98926310     1.51600
Co96       Co  0.57168148  0.03425334  0.99158779     1.51500
O97         O  0.49676030  0.02450547  0.01323472    -1.40500
C98         C  0.51788942  0.91014635  0.49932864     1.11000
C99         C  0.40199441  0.04700369  0.08748891     1.11100
C100        C  0.36084485  0.90511772  0.49730402     1.11000
C101        C  0.60802518  0.04970175  0.09163528     1.11000
O102        O  0.99771522  0.46492514  0.42433953    -0.78600
O103        O  0.87710788  0.51037693  0.05669182    -0.78600
O104        O  0.91726043  0.42425192  0.98541329    -0.78600
O105        O  0.98751507  0.64711053  0.46804122    -0.78600
O106        O  0.88410669  0.41037931  0.05917149    -0.78700
O107        O  0.99299259  0.57847970  0.42290651    -0.78600
O108        O  0.91168351  0.53386022  0.98314475    -0.78600
O109        O  0.00165489  0.39655835  0.47041339    -0.78600
C110        C  0.99681378  0.41446406  0.42922043     1.11100
C111        C  0.86870441  0.51373596  0.01221169     1.11000
C112        C  0.87536778  0.39800975  0.01488382     1.11100
C113        C  0.98954254  0.62678740  0.42689043     1.11000
O114        O  0.10417964  0.63105703  0.47526883    -0.78600
O115        O  0.98701755  0.46542640  0.12148771    -0.78700
O116        O  0.07776278  0.48304871  0.03812610    -0.78600
O117        O  0.95910206  0.61715506  0.06355042    -0.78600
O118        O  0.97931543  0.57103504  0.12009450    -0.78600
O119        O  0.11038995  0.53442709  0.47456916    -0.78600
O120        O  0.06684233  0.64846652  0.03798548    -0.78600
O121        O  0.97500267  0.39971900  0.06571942    -0.78600
Co122      Co  0.04314001  0.54787830  0.45886933     1.51500
Co123      Co  0.93733138  0.49234505  0.08612802     1.51700
Co124      Co  0.99945755  0.45615710  0.00960540     1.51600
Co125      Co  0.99133432  0.59083049  0.00856272     1.51500
O126        O  0.00187993  0.52719380  0.03191423    -1.40500
C127        C  0.10762357  0.66067672  0.51207606     1.11000
C128        C  0.98587021  0.41741162  0.10911680     1.11100
C129        C  0.11798786  0.51211909  0.51173037     1.11000
C130        C  0.97142611  0.61356281  0.10700381     1.11000
O131        O  0.37273216  0.39950244  0.44568692    -0.78600
O132        O  0.60339423  0.53830895  0.96281670    -0.78600
O133        O  0.56202444  0.58622121  0.40332934    -0.78600
O134        O  0.50363515  0.41459218  0.03478101    -0.78600
O135        O  0.63431831  0.65389234  0.45006322    -0.78700
O136        O  0.48527764  0.42833020  0.96056087    -0.78600
O137        O  0.60973023  0.51445291  0.03711107    -0.78600
O138        O  0.44269849  0.47227884  0.40073936    -0.78600
C139        C  0.39408279  0.42058323  0.40461175     1.11100
C140        C  0.62448388  0.51810078  0.99325146     1.11000
C141        C  0.61352251  0.63461884  0.40848498     1.11100
C142        C  0.50032237  0.40203411  0.99039801     1.11000
O143        O  0.40174927  0.40158267  0.04059380    -0.78600
O144        O  0.55866970  0.65028110  0.01840228    -0.78700
O145        O  0.39883102  0.53994588  0.45575964    -0.78600
O146        O  0.56432122  0.57290546  0.09908183    -0.78600
O147        O  0.63392363  0.62028965  0.04446766    -0.78600
O148        O  0.38243978  0.48493770  0.01522605    -0.78600
O149        O  0.45186440  0.46698953  0.09724366    -0.78600
O150        O  0.50083003  0.63693796  0.45635584    -0.78600
Co151      Co  0.43446414  0.45943925  0.98545717     1.51500
Co152      Co  0.57801789  0.59397201  0.98802082     1.51700
Co153      Co  0.47965534  0.55416442  0.43817068     1.51600
Co154      Co  0.52994468  0.49516700  0.06382467     1.51500
O155        O  0.50240387  0.53022707  0.00911894    -1.40500
C156        C  0.40671049  0.41833126  0.08415760     1.11000
C157        C  0.52519908  0.66450389  0.49420356     1.11100
C158        C  0.36839600  0.51397274  0.49214732     1.11000
C159        C  0.61555783  0.61554215  0.08754981     1.11000
C160        C  0.32076298  0.52274831  0.50723797    -0.17000
C161        C  0.27794654  0.52662899  0.51799623     0.07100
C162        C  0.22389643  0.52575955  0.52434373     0.09000
C163        C  0.17542360  0.52080443  0.52237016    -0.17800
C164        C  0.66898957  0.50341807  0.97989184    -0.17000
C165        C  0.71078581  0.49530181  0.97759733     0.07100
C166        C  0.76357825  0.49338784  0.98419958     0.09000
C167        C  0.81093637  0.49914355  0.99541669    -0.17800
C168        C  0.51552435  0.85665359  0.51362764    -0.17000
C169        C  0.51540784  0.81093362  0.51942085     0.07100
C170        C  0.51743201  0.75821240  0.51720679     0.09000
C171        C  0.52055027  0.71456474  0.50868891    -0.17800
C172        C  0.50969154  0.35470511  0.97507298    -0.17000
C173        C  0.51407240  0.31117137  0.96859345     0.07100
C174        C  0.51412264  0.25704493  0.96954490     0.09000
C175        C  0.50948802  0.20936263  0.97731982    -0.17800
C176        C  0.31124396  0.85040648  0.51165800    -0.17000
C177        C  0.26615844  0.80591649  0.52166371     0.07100
C178        C  0.21059009  0.75501367  0.52699668     0.09000
C179        C  0.16248622  0.71164226  0.52393421    -0.17800
C180        C  0.66940193  0.21331113  0.98434941    -0.17000
C181        C  0.71457594  0.26052675  0.98176196     0.07100
C182        C  0.77017432  0.31219241  0.98781196     0.09000
C183        C  0.81833598  0.35279429  0.99854267    -0.17800
C184        C  0.67450073  0.03569434  0.15745106    -0.11700
C185        C  0.64460350  0.04170358  0.12683276    -0.13300
C186        C  0.66948804  0.02626837  0.33382516    -0.11700
C187        C  0.64156900  0.02668378  0.36914742    -0.13300
C188        C  0.65313954  0.65855453  0.12342729    -0.11700
C189        C  0.68132072  0.69123788  0.15642988    -0.13300
C190        C  0.67772003  0.69551266  0.33290276    -0.11700
C191        C  0.64893487  0.66612528  0.36703302    -0.13300
C192        C  0.74179331  0.87524948  0.22596931    -0.14900
C193        C  0.74086050  0.91500396  0.25781887    -0.30100
H194        H  0.74398616  0.88419255  0.18774378     0.14100
H195        H  0.74377320  0.90823561  0.29592249     0.14700
C196        C  0.98006963  0.69109665  0.17407999    -0.11700
C197        C  0.97605657  0.65778960  0.14156954    -0.13300
C198        C  0.98646554  0.65721181  0.38458977    -0.11700
C199        C  0.98851382  0.68665498  0.35015274    -0.13300
C200        C  0.90516930  0.79685596  0.26523320    -0.14000
C201        C  0.86293626  0.78003367  0.23094148    -0.30100
H202        H  0.89680759  0.81261181  0.29916555     0.14100
H203        H  0.86859770  0.76309388  0.19667032     0.14700
C204        C  0.35656474  0.04114054  0.12195106    -0.11700
C205        C  0.32267222  0.03654246  0.15450099    -0.13300
C206        C  0.32687263  0.01601663  0.32966444    -0.11700
C207        C  0.35496597  0.01629143  0.36428298    -0.13300
C208        C  0.13553909  0.91861583  0.23573717    -0.14900
C209        C  0.11885803  0.86125699  0.24701716    -0.30100
H210        H  0.10211473  0.93047017  0.22636835     0.14100
H211        H  0.15436726  0.85190108  0.25538478     0.14700
C212        C  0.36175727  0.38116191  0.11904361    -0.11700
C213        C  0.32874607  0.35251533  0.15176187    -0.13300
C214        C  0.33574629  0.35501394  0.32820685    -0.11700
C215        C  0.36461178  0.38493252  0.36233854    -0.13300
C216        C  0.24923973  0.16934983  0.22361844    -0.14900
C217        C  0.23882623  0.12786906  0.25749592    -0.30100
H218        H  0.25751510  0.16191294  0.18661224     0.14100
H219        H  0.23054229  0.13774096  0.29386834     0.14700
C220        C  0.00108062  0.35394603  0.17717635    -0.11700
C221        C  0.99543735  0.38191892  0.14457863    -0.13300
C222        C  0.98510093  0.34726661  0.35336680    -0.11700
C223        C  0.98720930  0.37668175  0.38805721    -0.13300
C224        C  0.10986433  0.27886872  0.27005919    -0.14900
C225        C  0.14534615  0.28150317  0.23289343    -0.30100
H226        H  0.12439665  0.27561761  0.30592791     0.14100
H227        H  0.13204626  0.28276408  0.19616894     0.14700
C228        C  0.89706205  0.17127366  0.23974967    -0.14900
C229        C  0.85367506  0.12861030  0.26782485    -0.30100
H230        H  0.89414377  0.16608782  0.20095080     0.14100
H231        H  0.85934627  0.13157296  0.30655978     0.14700
C232        C  0.99426696  0.32152919  0.80950998     0.88000
C233        C  0.04927098  0.31447702  0.80996240    -0.52200
C234        C  0.05734505  0.28914785  0.76944911     0.11000
C235        C  0.00745291  0.27303114  0.73121208     0.21900
C236        C  0.99991540  0.35682006  0.76422850    -0.52900
C237        C  0.00614350  0.33179824  0.72306671     0.11100
C238        C  0.94192561  0.25869790  0.80003844    -0.52500
C239        C  0.94796383  0.23267266  0.75875081     0.11600
H240        H  0.07933911  0.32788470  0.84053587     0.16100
H241        H  0.01277561  0.25249471  0.69772284     0.01900
H242        H  0.99653710  0.39710181  0.76446598     0.16400
H243        H  0.90224112  0.23843099  0.82255141     0.16200
C244        C  0.29904833  0.32361638  0.78564850     0.88000
C245        C  0.28774521  0.25964190  0.78026028    -0.52200
C246        C  0.25703631  0.23041112  0.73934263     0.11000
C247        C  0.24013816  0.26927239  0.70778663     0.21900
C248        C  0.33041131  0.35487021  0.73927076    -0.52900
C249        C  0.30039561  0.32705247  0.69855763     0.11100
C250        C  0.23715146  0.31753275  0.78284478    -0.52500
C251        C  0.20517292  0.28888135  0.74230591     0.11600
H252        H  0.30523904  0.24039159  0.80552775     0.16100
H253        H  0.21570634  0.24668351  0.67441939     0.01900
H254        H  0.37362130  0.39556338  0.73862284     0.16400
H255        H  0.22116242  0.33650320  0.81009808     0.16200
C256        C  0.29417004  0.02152598  0.78954547     0.88000
C257        C  0.23151855  0.96731484  0.78422771    -0.52200
C258        C  0.19931541  0.97033075  0.74624929     0.11000
C259        C  0.23492943  0.02958422  0.71683074     0.21900
C260        C  0.32464024  0.02716130  0.74135231    -0.52900
C261        C  0.29464676  0.03128148  0.70286603     0.11100
C262        C  0.28449182  0.07489173  0.79262228    -0.52500
C263        C  0.25373991  0.08033414  0.75519203     0.11600
H264        H  0.21353170  0.93051807  0.80954291     0.16100
H265        H  0.20991167  0.03316780  0.68595425     0.01900
H266        H  0.36685040  0.02774803  0.73788372     0.16400
H267        H  0.30009854  0.10582001  0.82285346     0.16200
C268        C  0.99323571  0.72539266  0.80803253     0.88000
C269        C  0.94663806  0.74507980  0.80736506    -0.52200
C270        C  0.94759114  0.77561761  0.76702373     0.11000
C271        C  0.99793242  0.78484378  0.73058518     0.21900
C272        C  0.98369124  0.69011079  0.76163766    -0.52900
C273        C  0.98618069  0.72031468  0.72095488     0.11100
C274        C  0.05297221  0.78268905  0.80109995    -0.52500
C275        C  0.05688291  0.81475060  0.76083551     0.11600
H276        H  0.91479180  0.73511469  0.83648088     0.16100
H277        H  0.99994456  0.80969306  0.69756261     0.01900
H278        H  0.97636617  0.64488222  0.76094824     0.16400
H279        H  0.09053612  0.79543375  0.82504388     0.16200
C280        C  0.70855474  0.73313519  0.78830205     0.88000
C281        C  0.71254319  0.79398332  0.78228295    -0.52200
C282        C  0.73967867  0.82290177  0.74034883     0.11000
C283        C  0.76070572  0.78662041  0.70839752     0.21900
C284        C  0.67703812  0.69772636  0.74327083    -0.52900
C285        C  0.70362864  0.72489919  0.70137435     0.11100
C286        C  0.77276517  0.74576908  0.78373143    -0.52500
C287        C  0.80114117  0.77368573  0.74194775     0.11600
H288        H  0.69305076  0.81109075  0.80809748     0.16100
H289        H  0.78250812  0.80878139  0.67410647     0.01900
H290        H  0.63684512  0.65412755  0.74443661     0.16400
H291        H  0.79298729  0.73091721  0.81042039     0.16200
C292        C  0.70572230  0.03573485  0.69932945     0.88000
C293        C  0.71029122  0.97858218  0.70196605    -0.52200
C294        C  0.73646038  0.97394858  0.74332690     0.11000
C295        C  0.75527856  0.02786722  0.77809821     0.21900
C296        C  0.67270775  0.03575621  0.74521291    -0.52900
C297        C  0.69815769  0.03183739  0.78649624     0.11100
C298        C  0.77001407  0.08740656  0.70608600    -0.52500
C299        C  0.79642557  0.08381977  0.74764655     0.11600
H300        H  0.69253130  0.94421241  0.67435671     0.16100
H301        H  0.77599876  0.02469687  0.81200121     0.01900
H302        H  0.63250644  0.03926469  0.74505653     0.16400
H303        H  0.79100627  0.12504485  0.68168933     0.16200
O304        O  0.43893745  0.01893639  0.90432168    -0.78600
O305        O  0.60185098  0.14536036  0.53842150    -0.78600
O306        O  0.47729180  0.10663147  0.46207246    -0.78600
O307        O  0.63091533  0.03124582  0.95256879    -0.78600
O308        O  0.49686366  0.14204086  0.53549495    -0.78700
O309        O  0.55754954  0.02411130  0.90617534    -0.78600
O310        O  0.59356804  0.11161040  0.46472489    -0.78600
O311        O  0.36841360  0.02246581  0.94842453    -0.78600
C312        C  0.38915717  0.01973346  0.90765528     1.11100
C313        C  0.61753626  0.15360618  0.49464264     1.11000
C314        C  0.49361345  0.14944652  0.49090257     1.11100
C315        C  0.60972012  0.02854193  0.91098703     1.11000
O316        O  0.49636821  0.91400918  0.96090931    -0.78600
O317        O  0.44327623  0.04170062  0.60050979    -0.78700
O318        O  0.37354324  0.95112249  0.52015346    -0.78600
O319        O  0.62349250  0.06243600  0.54746213    -0.78600
O320        O  0.55538772  0.04501323  0.60279657    -0.78600
O321        O  0.39462741  0.91031067  0.96099769    -0.78600
O322        O  0.54816620  0.95687408  0.52223569    -0.78600
O323        O  0.39343071  0.05511430  0.54291032    -0.78600
Co324      Co  0.47559377  0.97535863  0.94219096     1.51500
Co325      Co  0.52179172  0.08794471  0.56614556     1.51700
Co326      Co  0.42588500  0.02644853  0.48898529     1.51600
Co327      Co  0.56771921  0.03165694  0.49102548     1.51500
O328        O  0.49318478  0.02263434  0.51279450    -1.40500
C329        C  0.52183720  0.91232262  0.99837440     1.11000
C330        C  0.39845222  0.04569944  0.58699502     1.11100
C331        C  0.36464098  0.90768552  0.99738268     1.11000
C332        C  0.60575665  0.05113387  0.59081947     1.11000
O333        O  0.00147313  0.46865871  0.92417096    -0.78600
O334        O  0.87411667  0.50898832  0.55813454    -0.78600
O335        O  0.91357804  0.42216080  0.48628006    -0.78600
O336        O  0.99285239  0.65126792  0.96900919    -0.78600
O337        O  0.88102556  0.40887222  0.56029119    -0.78700
O338        O  0.99893749  0.58372780  0.92292465    -0.78600
O339        O  0.90705477  0.53023107  0.48413243    -0.78600
O340        O  0.00672873  0.40047290  0.96965737    -0.78600
C341        C  0.00134983  0.41852782  0.92867409     1.11100
C342        C  0.86478333  0.51116001  0.51372475     1.11000
C343        C  0.87226439  0.39544232  0.51611247     1.11100
C344        C  0.99484343  0.63165842  0.92756319     1.11000
O345        O  0.10920435  0.63350333  0.97681241    -0.78600
O346        O  0.98522995  0.46516680  0.62155545    -0.78700
O347        O  0.07431793  0.47992408  0.53740387    -0.78600
O348        O  0.95606732  0.61574701  0.56384464    -0.78600
O349        O  0.97742735  0.57037127  0.62022335    -0.78600
O350        O  0.11373614  0.53620697  0.97465646    -0.78600
O351        O  0.06242145  0.64618296  0.53678921    -0.78600
O352        O  0.97173655  0.39835494  0.56636784    -0.78600
Co353      Co  0.04737300  0.55103453  0.95919765     1.51500
Co354      Co  0.93481163  0.49124668  0.58676921     1.51700
Co355      Co  0.99575210  0.45364492  0.50970384     1.51600
Co356      Co  0.98683311  0.58786900  0.50848625     1.51500
O357        O  0.99865466  0.52509189  0.53194882    -1.40500
C358        C  0.11251200  0.66270019  0.01386497     1.11000
C359        C  0.98395757  0.41711021  0.60938519     1.11100
C360        C  0.12147458  0.51505836  0.01242767     1.11000
C361        C  0.96938372  0.61284070  0.60722452     1.11000
O362        O  0.37172504  0.40431707  0.94540290    -0.78600
O363        O  0.60117885  0.53734052  0.46446350    -0.78600
O364        O  0.56388792  0.58839060  0.90263437    -0.78600
O365        O  0.50421417  0.41427852  0.53705907    -0.78600
O366        O  0.63697831  0.65530304  0.94925765    -0.78700
O367        O  0.48700851  0.42758587  0.46242032    -0.78600
O368        O  0.60876736  0.51562687  0.53910496    -0.78600
O369        O  0.44286468  0.47533492  0.89998563    -0.78600
C370        C  0.39330827  0.42441375  0.90416878     1.11100
C371        C  0.62275246  0.51805362  0.49516996     1.11000
C372        C  0.61532497  0.63691377  0.90772951     1.11100
C373        C  0.50153247  0.40142677  0.49275094     1.11000
O374        O  0.40174207  0.39896019  0.54152618    -0.78600
O375        O  0.55497374  0.64873323  0.51822357    -0.78700
O376        O  0.40181220  0.54468878  0.95585139    -0.78600
O377        O  0.56137254  0.57310793  0.60016514    -0.78600
O378        O  0.63084023  0.62044406  0.54548379    -0.78600
O379        O  0.37907162  0.47903171  0.51439711    -0.78600
O380        O  0.44991955  0.46547693  0.59806076    -0.78600
O381        O  0.50476103  0.64022394  0.95676318    -0.78600
Co382      Co  0.43381891  0.45624411  0.48601686     1.51500
Co383      Co  0.57519201  0.59268086  0.48881871     1.51700
Co384      Co  0.48189541  0.55724070  0.93777511     1.51600
Co385      Co  0.52853742  0.49495722  0.56538772     1.51500
O386        O  0.50000373  0.52842065  0.51006714    -1.40500
C387        C  0.40565482  0.41619702  0.58487349     1.11000
C388        C  0.52915746  0.66688255  0.99491252     1.11100
C389        C  0.37228461  0.52024255  0.99296835     1.11000
C390        C  0.61226026  0.61630559  0.58844039     1.11000
C391        C  0.32590451  0.53066425  0.00863426    -0.17000
C392        C  0.28321866  0.53458702  0.01972720     0.07100
C393        C  0.22843471  0.53209183  0.02614154     0.09000
C394        C  0.17922499  0.52520904  0.02383374    -0.17800
C395        C  0.66642556  0.50250973  0.48178562    -0.17000
C396        C  0.70762385  0.49365039  0.47937270     0.07100
C397        C  0.75990314  0.49115723  0.48615613     0.09000
C398        C  0.80700742  0.49662409  0.49747459    -0.17800
C399        C  0.51889946  0.85851549  0.01274819    -0.17000
C400        C  0.51867418  0.81287486  0.01955665     0.07100
C401        C  0.52111775  0.76029603  0.01855193     0.09000
C402        C  0.52467160  0.71681194  0.01026899    -0.17800
C403        C  0.51042598  0.35374129  0.47776816    -0.17000
C404        C  0.51314225  0.30962524  0.46956995     0.07100
C405        C  0.51073654  0.25439503  0.46775043     0.09000
C406        C  0.50456236  0.20590225  0.47427919    -0.17800
C407        C  0.31579529  0.85266848  0.01256390    -0.17000
C408        C  0.27142861  0.80771189  0.02333162     0.07100
C409        C  0.21613849  0.75634266  0.02934030     0.09000
C410        C  0.16779363  0.71306743  0.02642827    -0.17800
C411        C  0.66774642  0.20903930  0.48127059    -0.17000
C412        C  0.71411634  0.25520465  0.47988584     0.07100
C413        C  0.76932387  0.30654787  0.48811642     0.09000
C414        C  0.81624164  0.34810285  0.50010816    -0.17800
C415        C  0.67446258  0.04074654  0.65663219    -0.11700
C416        C  0.64355285  0.04539624  0.62618027    -0.13300
C417        C  0.67239621  0.03290207  0.83302539    -0.11700
C418        C  0.64525138  0.03282170  0.86893259    -0.13300
C419        C  0.64941046  0.66068780  0.62382083    -0.11700
C420        C  0.67819727  0.69469279  0.65605425    -0.13300
C421        C  0.67764760  0.70004244  0.83225367    -0.11700
C422        C  0.64963806  0.66971643  0.86626331    -0.13300
C423        C  0.74220476  0.88010172  0.72502850    -0.14900
C424        C  0.74139715  0.92014468  0.75668976    -0.30100
H425        H  0.74397668  0.88870328  0.68676662     0.14100
H426        H  0.74465452  0.91373302  0.79480718     0.14700
C427        C  0.98023861  0.69146665  0.67453948    -0.11700
C428        C  0.97513530  0.65771916  0.64188696    -0.13300
C429        C  0.99041993  0.66212563  0.88564838    -0.11700
C430        C  0.99069584  0.69084423  0.85119493    -0.13300
C431        C  0.90330280  0.79685633  0.76418545    -0.14000
C432        C  0.86153909  0.78149533  0.72950301    -0.30100
H433        H  0.89482150  0.81232218  0.79820839     0.14100
H434        H  0.86727567  0.76514034  0.69497779     0.14700
C435        C  0.35362110  0.04040833  0.62190375    -0.11700
C436        C  0.32069514  0.03638363  0.65508503    -0.13300
C437        C  0.32884415  0.01919779  0.83066032    -0.11700
C438        C  0.35807475  0.02035998  0.86493335    -0.13300
C439        C  0.13501373  0.92208180  0.73849078    -0.14900
C440        C  0.11801930  0.86401109  0.74659874    -0.30100
H441        H  0.10168435  0.93498568  0.73194085     0.14100
H442        H  0.15346489  0.85388568  0.75289293     0.14700
C443        C  0.36048251  0.37902249  0.61942909    -0.11700
C444        C  0.32745124  0.35098075  0.65222494    -0.13300
C445        C  0.33412255  0.35697336  0.82863456    -0.11700
C446        C  0.36326893  0.38800219  0.86227123    -0.13300
C447        C  0.24856151  0.17026540  0.72497480    -0.14900
C448        C  0.23810988  0.12882202  0.75875835    -0.30100
H449        H  0.25772464  0.16328116  0.68809374     0.14100
H450        H  0.22907599  0.13814337  0.79507042     0.14700
C451        C  0.00264047  0.35635781  0.67720170    -0.11700
C452        C  0.99528658  0.38298952  0.64462512    -0.13300
C453        C  0.98883156  0.35114716  0.85299068    -0.11700
C454        C  0.99150692  0.38093127  0.88750056    -0.13300
C455        C  0.10799589  0.27650781  0.76940148    -0.14900
C456        C  0.14481863  0.28246965  0.73243316    -0.30100
H457        H  0.12084089  0.26977432  0.80496089     0.14100
H458        H  0.13356389  0.28792655  0.69598106     0.14700
C459        C  0.89771226  0.17603290  0.73857830    -0.14900
C460        C  0.85424650  0.13353754  0.76642732    -0.30100
H461        H  0.89509092  0.17101760  0.69975841     0.14100
H462        H  0.85965564  0.13635854  0.80519159     0.14700
loop_ 
_geom_bond_atom_site_label_1 
_geom_bond_atom_site_label_2 
_geom_bond_distance 
_geom_bond_site_symmetry_2 
_ccdc_geom_bond_type 
C1            C2   1.522   1_655  S
C1            C7   1.531       .  S
C1            C5   1.524       .  S
C1          C222   1.474       .  S
C2            H9   1.088       .  S
C2            C3   1.367       .  D
C3            C4   1.568       .  S
C3          C224   1.507       .  S
C4            C8   1.567   1_455  S
C4            C6   1.559       .  S
C4           H10   1.110       .  S
C5           H11   1.088       .  S
C5            C6   1.360   1_655  D
C6          C220   1.458       .  S
C7           H12   1.086       .  S
C7            C8   1.373       .  D
C8          C228   1.504       .  S
C13          C14   1.535       .  S
C13          C19   1.531       .  S
C13          C17   1.522       .  S
C13         C214   1.487       .  S
C14          H21   1.086       .  S
C14          C15   1.377       .  D
C15          C16   1.561       .  S
C15         C216   1.514       .  S
C16          C20   1.565       .  S
C16          C18   1.555       .  S
C16          H22   1.110       .  S
C17          H23   1.088       .  S
C17          C18   1.358       .  D
C18         C213   1.452       .  S
C19          H24   1.085       .  S
C19          C20   1.377       .  D
C20         C225   1.519       .  S
C25          C26   1.526   1_545  S
C25          C31   1.521       .  S
C25          C29   1.519       .  S
C25         C206   1.471       .  S
C26          H33   1.086       .  S
C26          C27   1.374       .  D
C27          C28   1.574   1_565  S
C27         C208   1.519       .  S
C28          C32   1.568       .  S
C28          C30   1.570       .  S
C28          H34   1.110       .  S
C29          H35   1.088       .  S
C29          C30   1.360       .  D
C30         C205   1.461       .  S
C31          H36   1.088       .  S
C31          C32   1.364       .  D
C32         C217   1.504       .  S
C37          C38   1.522       .  S
C37          C43   1.529   1_655  S
C37          C41   1.521       .  S
C37         C199   1.479       .  S
C38          H45   1.087       .  S
C38          C39   1.367       .  D
C39          C40   1.565       .  S
C39         C200   1.494       .  S
C40          C44   1.565   1_655  S
C40          C42   1.559       .  S
C40          H46   1.110   1_655  S
C41          H47   1.088       .  S
C41          C42   1.361       .  D
C42         C196   1.451       .  S
C43          H48   1.087       .  S
C43          C44   1.372       .  D
C44         C209   1.506       .  S
C49          C50   1.534       .  S
C49          C55   1.530       .  S
C49          C53   1.526       .  S
C49         C190   1.478       .  S
C50          H57   1.086       .  S
C50          C51   1.373       .  D
C51          C52   1.564       .  S
C51         C192   1.508       .  S
C52          C56   1.558       .  S
C52          C54   1.550       .  S
C52          H58   1.110       .  S
C53          H59   1.087       .  S
C53          C54   1.358       .  D
C54         C189   1.452       .  S
C55          H60   1.087       .  S
C55          C56   1.372       .  D
C56         C201   1.504       .  S
C61          C62   1.541   1_545  S
C61          C67   1.539       .  S
C61          C65   1.530       .  S
C61         C184   1.483       .  S
C62          H69   1.086       .  S
C62          C63   1.374       .  D
C63          C64   1.559   1_565  S
C63         C193   1.506       .  S
C64          C68   1.556       .  S
C64          C66   1.550       .  S
C64          H70   1.111       .  S
C65          H71   1.088       .  S
C65          C66   1.356       .  D
C66         C186   1.461       .  S
C67          H72   1.085       .  S
C67          C68   1.372       .  D
C68         C229   1.503       .  S
O73          C81   1.299       .  A
O73         Co93   2.082   1_545  S
O74          C82   1.266   1_554  A
O74         Co94   2.003       .  S
O75          C83   1.256       .  A
O75         Co95   1.969       .  S
O76          C84   1.268       .  A
O76        Co327   1.905       .  S
O77          C83   1.267   1_554  A
O77         Co94   2.010       .  S
O78          C84   1.304       .  A
O78         Co93   2.103   1_545  S
O79          C82   1.257       .  A
O79         Co96   1.974       .  S
O80          C81   1.268       .  A
O80        Co326   1.897       .  S
C81         C207   1.438       .  S
C82         C180   1.423       .  S
C83         C175   1.423       .  S
C84         C187   1.456       .  S
O85          C98   1.249       .  A
O85         Co93   1.982       .  S
O86          C99   1.273       .  A
O86         Co94   2.008       .  S
O87         C331   1.238   1_554  A
O87         Co95   1.940   1_564  S
O88         C101   1.271       .  A
O88         Co96   2.013   1_554  S
O89         C101   1.274       .  A
O89         Co94   2.005       .  S
O90         C100   1.252       .  A
O90         Co93   1.993       .  S
O91         C329   1.236   1_554  A
O91         Co96   1.947   1_564  S
O92          C99   1.270       .  A
O92         Co95   2.020   1_554  S
Co93        O328   2.262   1_565  S
Co94         O97   2.082       .  S
Co95        O311   1.896       .  S
Co95         O97   1.918   1_556  S
Co96        O307   1.904       .  S
Co96         O97   1.918   1_556  S
O97        Co324   2.259   1_544  S
C98         O322   1.237       .  A
C98         C168   1.413       .  S
C99         C204   1.459       .  S
C100        O318   1.237       .  A
C100        C176   1.413       .  S
C101        C185   1.451       .  S
O102        C110   1.301       .  A
O102       Co122   2.092   1_655  S
O103        C111   1.268       .  A
O103       Co123   2.014       .  S
O104        C112   1.252   1_556  A
O104       Co124   1.978   1_556  S
O105        C113   1.268       .  A
O105       Co356   1.899       .  S
O106        C112   1.263       .  A
O106       Co123   2.007       .  S
O107        C113   1.300       .  A
O107       Co122   2.088   1_655  S
O108        C111   1.255   1_556  A
O108       Co125   1.972   1_556  S
O109        C110   1.268   1_455  A
O109       Co355   1.896   1_455  S
C110        C223   1.440       .  S
C111        C167   1.427   1_554  S
C112        C183   1.425   1_554  S
C113        C198   1.444       .  S
O114        C127   1.251       .  A
O114       Co122   1.983       .  S
O115        C128   1.272       .  A
O115       Co123   2.005       .  S
O116        C360   1.240       .  A
O116       Co124   1.955   1_455  S
O117        C130   1.267       .  A
O117       Co125   2.008       .  S
O118        C130   1.270       .  A
O118       Co123   1.999       .  S
O119        C129   1.250       .  A
O119       Co122   1.988       .  S
O120        C358   1.240       .  A
O120       Co125   1.950   1_455  S
O121        C128   1.270       .  A
O121       Co124   2.015       .  S
Co122       O357   2.260   1_455  S
Co123       O126   2.087   1_655  S
Co124       O340   1.894   1_654  S
Co124       O126   1.906   1_655  S
Co125       O336   1.901   1_554  S
Co125       O126   1.915   1_655  S
O126       Co353   2.261   1_554  S
C127        O351   1.239       .  A
C127        C179   1.412       .  S
C128        C221   1.455       .  S
C129        O347   1.240       .  A
C129        C163   1.420       .  S
C130        C197   1.448       .  S
O131        C139   1.267       .  A
O131       Co382   1.896       .  S
O132        C140   1.258       .  A
O132       Co152   1.979       .  S
O133        C141   1.303       .  A
O133       Co153   2.094       .  S
O134        C142   1.267   1_554  A
O134       Co154   2.006       .  S
O135        C141   1.268       .  A
O135       Co383   1.895       .  S
O136        C142   1.256       .  A
O136       Co151   1.972       .  S
O137        C140   1.265   1_554  A
O137       Co154   2.003       .  S
O138        C139   1.305       .  A
O138       Co153   2.108       .  S
C139        C215   1.452       .  S
C140        C164   1.426       .  S
C141        C191   1.444       .  S
C142        C172   1.423       .  S
O143        C156   1.269       .  A
O143       Co151   2.013   1_554  S
O144        C388   1.237   1_554  A
O144       Co152   1.946   1_554  S
O145        C158   1.251       .  A
O145       Co153   1.991       .  S
O146        C159   1.271       .  A
O146       Co154   1.998       .  S
O147        C159   1.270       .  A
O147       Co152   2.013   1_554  S
O148        C389   1.239   1_554  A
O148       Co151   1.947   1_554  S
O149        C156   1.270       .  A
O149       Co154   1.997       .  S
O150        C157   1.250       .  A
O150       Co153   1.989       .  S
Co151       O362   1.897       .  S
Co151       O155   1.913   1_556  S
Co152       O366   1.894       .  S
Co152       O155   1.914   1_556  S
Co153       O386   2.258       .  S
Co154       O155   2.078       .  S
O155       Co384   2.260   1_554  S
C156        C212   1.449       .  S
C157        O375   1.236       .  A
C157        C171   1.414       .  S
C158        O379   1.238       .  A
C158        C160   1.419       .  S
C159        C188   1.448       .  S
C160        C161   1.196       .  T
C161        C162   1.396       .  S
C162        C163   1.196       .  T
C164        C165   1.200       .  T
C165        C166   1.404       .  S
C166        C167   1.201       .  T
C168        C169   1.193       .  T
C169        C170   1.391       .  S
C170        C171   1.193       .  T
C172        C173   1.198       .  T
C173        C174   1.400       .  S
C174        C175   1.199       .  T
C176        C177   1.192       .  T
C177        C178   1.390       .  S
C178        C179   1.192       .  T
C180        C181   1.199       .  T
C181        C182   1.401       .  S
C182        C183   1.199       .  T
C184        C185   1.215       .  T
C186        C187   1.218       .  T
C188        C189   1.213       .  T
C190        C191   1.211       .  T
C192        H194   1.084       .  S
C192        C193   1.362       .  D
C193        H195   1.084       .  S
C196        C197   1.213       .  T
C198        C199   1.212       .  T
C200        H202   1.088       .  S
C200        C201   1.351       .  D
C201        H203   1.085       .  S
C204        C205   1.220       .  T
C206        C207   1.208       .  T
C208        H210   1.085       .  S
C208        C209   1.360       .  D
C209        H211   1.087       .  S
C212        C213   1.213       .  T
C214        C215   1.216       .  T
C216        H218   1.085       .  S
C216        C217   1.353       .  D
C217        H219   1.087       .  S
C220        C221   1.217   1_455  T
C222        C223   1.209       .  T
C224        H226   1.087       .  S
C224        C225   1.357       .  D
C225        H227   1.086       .  S
C228        H230   1.085       .  S
C228        C229   1.360       .  D
C229        H231   1.085       .  S
C232        C233   1.521   1_655  S
C232        C238   1.531       .  S
C232        C236   1.523       .  S
C232        C453   1.470       .  S
C233        H240   1.088       .  S
C233        C234   1.366       .  D
C234        C235   1.563       .  S
C234        C455   1.500       .  S
C235        C239   1.560   1_455  S
C235        C237   1.555       .  S
C235        H241   1.110       .  S
C236        H242   1.088       .  S
C236        C237   1.359   1_655  D
C237        C451   1.452       .  S
C238        H243   1.086       .  S
C238        C239   1.374       .  D
C239        C459   1.499       .  S
C244        C245   1.536       .  S
C244        C250   1.530       .  S
C244        C248   1.523       .  S
C244        C445   1.488       .  S
C245        H252   1.086       .  S
C245        C246   1.378       .  D
C246        C247   1.557       .  S
C246        C447   1.510       .  S
C247        C251   1.560       .  S
C247        C249   1.550       .  S
C247        H253   1.111       .  S
C248        H254   1.087       .  S
C248        C249   1.358       .  D
C249        C444   1.449       .  S
C250        H255   1.086       .  S
C250        C251   1.376       .  D
C251        C456   1.512       .  S
C256        C257   1.531   1_545  S
C256        C262   1.522       .  S
C256        C260   1.520       .  S
C256        C437   1.477       .  S
C257        H264   1.086       .  S
C257        C258   1.376       .  D
C258        C259   1.569   1_565  S
C258        C439   1.516       .  S
C259        C263   1.565       .  S
C259        C261   1.569       .  S
C259        H265   1.110       .  S
C260        H266   1.087       .  S
C260        C261   1.361       .  D
C261        C436   1.462       .  S
C262        H267   1.087       .  S
C262        C263   1.364       .  D
C263        C448   1.499       .  S
C268        C269   1.524       .  S
C268        C274   1.528   1_655  S
C268        C272   1.524       .  S
C268        C430   1.482       .  S
C269        H276   1.087       .  S
C269        C270   1.369       .  D
C270        C271   1.566       .  S
C270        C431   1.499       .  S
C271        C275   1.569   1_655  S
C271        C273   1.561       .  S
C271        H277   1.110       .  S
C272        H278   1.087       .  S
C272        C273   1.362       .  D
C273        C427   1.456       .  S
C274        H279   1.087       .  S
C274        C275   1.370       .  D
C275        C440   1.506       .  S
C280        C281   1.535       .  S
C280        C286   1.528       .  S
C280        C284   1.524       .  S
C280        C421   1.477       .  S
C281        H288   1.085       .  S
C281        C282   1.374       .  D
C282        C283   1.567       .  S
C282        C423   1.511       .  S
C283        C287   1.562       .  S
C283        C285   1.553       .  S
C283        H289   1.110       .  S
C284        H290   1.088       .  S
C284        C285   1.357       .  D
C285        C420   1.455       .  S
C286        H291   1.087       .  S
C286        C287   1.371       .  D
C287        C432   1.509       .  S
C292        C293   1.542   1_545  S
C292        C298   1.539       .  S
C292        C296   1.530       .  S
C292        C415   1.483       .  S
C293        H300   1.086       .  S
C293        C294   1.374       .  D
C294        C295   1.558   1_565  S
C294        C424   1.508       .  S
C295        C299   1.552       .  S
C295        C297   1.547       .  S
C295        H301   1.111       .  S
C296        H302   1.088       .  S
C296        C297   1.356       .  D
C297        C417   1.458       .  S
C298        H303   1.086       .  S
C298        C299   1.373       .  D
C299        C460   1.498       .  S
O304        C312   1.300       .  A
O304       Co324   2.091   1_545  S
O305        C313   1.266       .  A
O305       Co325   2.003       .  S
O306        C314   1.254       .  A
O306       Co326   1.970       .  S
O307        C315   1.269       .  A
O308        C314   1.266       .  A
O308       Co325   2.005       .  S
O309        C315   1.303       .  A
O309       Co324   2.099   1_545  S
O310        C313   1.256       .  A
O310       Co327   1.972       .  S
O311        C312   1.267       .  A
C312        C438   1.443       .  S
C313        C411   1.422       .  S
C314        C406   1.421       .  S
C315        C418   1.452       .  S
O316        C329   1.249       .  A
O316       Co324   1.985       .  S
O317        C330   1.273       .  A
O317       Co325   2.008       .  S
O318       Co326   1.937   1_565  S
O319        C332   1.270       .  A
O319       Co327   2.011       .  S
O320        C332   1.273       .  A
O320       Co325   2.003       .  S
O321        C331   1.252       .  A
O321       Co324   1.992       .  S
O322       Co327   1.946   1_565  S
O323        C330   1.271       .  A
O323       Co326   2.023       .  S
Co325       O328   2.082       .  S
Co326       O328   1.914       .  S
Co327       O328   1.916       .  S
C329        C399   1.415   1_556  S
C330        C435   1.460       .  S
C331        C407   1.416   1_556  S
C332        C416   1.450       .  S
O333        C341   1.301       .  A
O333       Co353   2.088       .  S
O334        C342   1.267       .  A
O334       Co354   2.012       .  S
O335        C343   1.251       .  A
O335       Co355   1.971       .  S
O336        C344   1.267       .  A
O337        C343   1.265       .  A
O337       Co354   2.012       .  S
O338        C344   1.301       .  A
O338       Co353   2.094   1_655  S
O339        C342   1.253       .  A
O339       Co356   1.968       .  S
O340        C341   1.269       .  A
C341        C454   1.436   1_455  S
C342        C398   1.422       .  S
C343        C414   1.424       .  S
C344        C429   1.448       .  S
O345        C358   1.251   1_556  A
O345       Co353   1.984       .  S
O346        C359   1.270       .  A
O346       Co354   1.998       .  S
O347       Co355   1.954   1_455  S
O348        C361   1.270       .  A
O348       Co356   2.016       .  S
O349        C361   1.270       .  A
O349       Co354   2.001       .  S
O350        C360   1.250   1_556  A
O350       Co353   1.986       .  S
O351       Co356   1.943   1_455  S
O352        C359   1.269       .  A
O352       Co355   2.011       .  S
Co354       O357   2.087       .  S
Co355       O357   1.910       .  S
Co356       O357   1.914       .  S
C358        C410   1.416       .  S
C359        C452   1.448       .  S
C360        C394   1.419       .  S
C361        C428   1.453       .  S
O362        C370   1.267       .  A
O363        C371   1.256       .  A
O363       Co383   1.974       .  S
O364        C372   1.303       .  A
O364       Co384   2.092       .  S
O365        C373   1.267       .  A
O365       Co385   2.011       .  S
O366        C372   1.268       .  A
O367        C373   1.255       .  A
O367       Co382   1.967       .  S
O368        C371   1.265       .  A
O368       Co385   2.000       .  S
O369        C370   1.306       .  A
O369       Co384   2.112       .  S
C370        C446   1.454       .  S
C371        C395   1.421       .  S
C372        C422   1.444       .  S
C373        C403   1.422       .  S
O374        C387   1.269       .  A
O374       Co382   2.013       .  S
O375       Co383   1.943       .  S
O376        C389   1.251       .  A
O376       Co384   1.991       .  S
O377        C390   1.272       .  A
O377       Co385   2.003       .  S
O378        C390   1.270       .  A
O378       Co383   2.013       .  S
O379       Co382   1.945       .  S
O380        C387   1.270       .  A
O380       Co385   1.994       .  S
O381        C388   1.250       .  A
O381       Co384   1.989       .  S
Co382       O386   1.916       .  S
Co383       O386   1.914       .  S
Co385       O386   2.081       .  S
C387        C443   1.445       .  S
C388        C402   1.416   1_556  S
C389        C391   1.419   1_556  S
C390        C419   1.451       .  S
C391        C392   1.196       .  T
C392        C393   1.396       .  S
C393        C394   1.196       .  T
C395        C396   1.197       .  T
C396        C397   1.399       .  S
C397        C398   1.198       .  T
C399        C400   1.193       .  T
C400        C401   1.392       .  S
C401        C402   1.194       .  T
C403        C404   1.198       .  T
C404        C405   1.399       .  S
C405        C406   1.197       .  T
C407        C408   1.194       .  T
C408        C409   1.393       .  S
C409        C410   1.194       .  T
C411        C412   1.198       .  T
C412        C413   1.401       .  S
C413        C414   1.199       .  T
C415        C416   1.215       .  T
C417        C418   1.216       .  T
C419        C420   1.215       .  T
C421        C422   1.211       .  T
C423        H425   1.084       .  S
C423        C424   1.363       .  D
C424        H426   1.084       .  S
C427        C428   1.216       .  T
C429        C430   1.214       .  T
C431        H433   1.088       .  S
C431        C432   1.354       .  D
C432        H434   1.085       .  S
C435        C436   1.220       .  T
C437        C438   1.211       .  T
C439        H441   1.085       .  S
C439        C440   1.358       .  D
C440        H442   1.087       .  S
C443        C444   1.211       .  T
C445        C446   1.218       .  T
C447        H449   1.085       .  S
C447        C448   1.351       .  D
C448        H450   1.087       .  S
C451        C452   1.213   1_455  T
C453        C454   1.207       .  T
C455        H457   1.087       .  S
C455        C456   1.353       .  D
C456        H458   1.086       .  S
C459        H461   1.085       .  S
C459        C460   1.355       .  D
C460        H462   1.085       .  S
