geometry optimzed in LAMMPS
_audit_creation_date              2020-12-01 
_audit_creation_method            'lammps2cif' 
_symmetry_space_group_name_H-M    'P1' 
_symmetry_Int_Tables_number       1 
_symmetry_cell_setting            triclinic 
loop_ 
_symmetry_equiv_pos_as_xyz 
  x,y,z 
_cell_length_a                    25.11092876 
_cell_length_b                    33.13861291089711 
_cell_length_c                    22.554272289483343 
_cell_angle_alpha                 91.24791564179537 
_cell_angle_beta                  96.83247014112285 
_cell_angle_gamma                 87.53156590414402 
loop_ 
_atom_site_label 
_atom_site_type_symbol 
_atom_site_fract_x 
_atom_site_fract_y 
_atom_site_fract_z 
_atom_site_charge 
C1          C  0.01639210  0.88303422  0.13554899     0.86600
C2          C  0.97253266  0.87138329  0.17272734    -0.53600
C3          C  0.98634192  0.83901346  0.20881553     0.09600
C4          C  0.04131186  0.81930265  0.19988132     0.20500
C5          C  0.06655242  0.88716608  0.18067156    -0.54300
C6          C  0.07968454  0.85398714  0.21475291     0.09700
C7          C  0.02697401  0.84534227  0.09823229    -0.53900
C8          C  0.03892558  0.81116449  0.13112697     0.10200
H9          H  0.18831799  0.89271083  0.18100494     0.14700
H10         H  0.05146952  0.79283779  0.22877958     0.00500
H11         H  0.08843929  0.91480131  0.18683142     0.15100
H12         H  0.02283757  0.84615213  0.04996839     0.14800
C13         C  0.06026128  0.69726737  0.09732919     0.86600
C14         C  0.05451526  0.73564464  0.13505775    -0.53600
C15         C  0.04411739  0.77014985  0.10252119     0.09600
C16         C  0.03958883  0.76214819  0.03369653     0.20500
C17         C  0.00852094  0.69610087  0.05358471    -0.54300
C18         C  0.00322230  0.73135945  0.51367192     0.09700
C19         C  0.10369886  0.70644053  0.05791270    -0.53900
C20         C  0.09225444  0.73979987  0.02301686     0.10200
H21         H  0.05935884  0.73490269  0.18336779     0.14700
H22         H  0.02900175  0.79377436  0.50506184     0.00500
H23         H  0.23691975  0.66824253  0.05173785     0.15100
H24         H  0.13645436  0.68492537  0.05136778     0.14800
C25         C  0.18320239  0.88610429  0.34469274     0.86600
C26         C  0.22692503  0.87382884  0.30560602    -0.53600
C27         C  0.21630411  0.84063345  0.27002183     0.09600
C28         C  0.16423069  0.82088529  0.28067791     0.20500
C29         C  0.13111072  0.88890460  0.30102274    -0.54300
C30         C  0.12155653  0.85480446  0.26700843     0.09700
C31         C  0.17805131  0.84910608  0.38231830    -0.53900
C32         C  0.16830272  0.81443188  0.34961188     0.10200
H33         H  0.00947636  0.89398156  0.29591479     0.14700
H34         H  0.15677887  0.79401863  0.25143509     0.00500
H35         H  0.10529849  0.91579440  0.29430330     0.15100
H36         H  0.18247177  0.85075808  0.43066317     0.14800
C37         C  0.14457701  0.70353578  0.38019163     0.86600
C38         C  0.15152609  0.74075376  0.34433355    -0.53600
C39         C  0.16275815  0.77466836  0.37801883     0.09600
C40         C  0.16700976  0.76711576  0.44672141     0.20500
C41         C  0.19646752  0.69856244  0.42311204    -0.54300
C42         C  0.20822134  0.73164705  0.45874955     0.09700
C43         C  0.10102530  0.71637627  0.41973303    -0.53900
C44         C  0.11362443  0.74870266  0.45718265     0.10200
H45         H  0.14667829  0.73968664  0.29606912     0.14700
H46         H  0.17613248  0.79372320  0.47612912     0.00500
H47         H  0.22073974  0.67059614  0.42623623     0.15100
H48         H  0.06798114  0.69721219  0.42507708     0.14800
C49         C  0.05403419  0.19740161  0.11898069     0.86600
C50         C  0.05720348  0.23561292  0.08354170    -0.53600
C51         C  0.06690565  0.26969428  0.11752716     0.09600
C52         C  0.07242615  0.26134272  0.18633261     0.20500
C53         C  0.10664564  0.19428339  0.16069184    -0.54300
C54         C  0.11594845  0.22738252  0.19695207     0.09700
C55         C  0.01080894  0.20742132  0.16011022    -0.53900
C56         C  0.02122787  0.23994852  0.19764097     0.10200
H57         H  0.05199796  0.23492289  0.03525361     0.14700
H58         H  0.08027582  0.28794329  0.21622437     0.00500
H59         H  0.13255318  0.16711263  0.16390246     0.15100
H60         H  0.23225211  0.18423051  0.16036939     0.14800
C61         C  0.09122027  0.38111897  0.08489204     0.86600
C62         C  0.13747967  0.36725930  0.04954888    -0.53600
C63         C  0.12718348  0.33434661  0.01261818     0.09600
C64         C  0.07303329  0.31603049  0.02028489     0.20500
C65         C  0.04194936  0.38488912  0.03773824    -0.54300
C66         C  0.03086742  0.35102707  0.49865779     0.09700
C67         C  0.08200786  0.34456860  0.12207417    -0.53900
C68         C  0.07315072  0.30976277  0.08918564     0.10200
H69         H  0.17067307  0.38655081  0.04519184     0.14700
H70         H  0.06458442  0.28931522  0.48587627     0.00500
H71         H  0.27370248  0.41264956  0.03531406     0.15100
H72         H  0.08366331  0.34640859  0.17027572     0.14800
C73         C  0.21974486  0.19375460  0.32637381     0.86600
C74         C  0.21324128  0.23162528  0.36483043    -0.53600
C75         C  0.20264712  0.26622913  0.33297233     0.09600
C76         C  0.19882370  0.25882600  0.26386202     0.20500
C77         C  0.16839209  0.19231896  0.28250069    -0.54300
C78         C  0.15758997  0.22620101  0.24922598     0.09700
C79         C  0.26350331  0.20332336  0.28741899    -0.53900
C80         C  0.25174898  0.23674897  0.25273407     0.10200
H81         H  0.21714026  0.23046451  0.41309845     0.14700
H82         H  0.19015938  0.28563912  0.23540360     0.00500
H83         H  0.14429443  0.16577535  0.27604084     0.15100
H84         H  0.04711724  0.18623772  0.28646165     0.14800
C85         C  0.17183681  0.37808274  0.36785368     0.86600
C86         C  0.12942520  0.36606515  0.40675741    -0.53600
C87         C  0.14469315  0.33396241  0.44286490     0.09600
C88         C  0.19961619  0.31463787  0.43178068     0.20500
C89         C  0.22336900  0.38255049  0.41048372    -0.54300
C90         C  0.23781412  0.34965369  0.44484885     0.09700
C91         C  0.18173549  0.34061343  0.33014772    -0.53900
C92         C  0.19558696  0.30663351  0.36262727     0.10200
H93         H  0.09455362  0.38555507  0.41270444     0.14700
H94         H  0.21116300  0.28822397  0.46041606     0.00500
H95         H  0.24522739  0.41025290  0.41481852     0.15100
H96         H  0.17632636  0.34141525  0.28188552     0.14800
O97         O  0.02624323  0.57697649  0.20498692    -0.71600
O98         O  0.07730466  0.49902317  0.32117193    -0.71800
O99         O  0.06725934  0.57997703  0.31972164    -0.71700
O100        O  0.03616213  0.49482235  0.20741062    -0.71700
O101        O  0.11573357  0.49762627  0.17932607    -0.71700
O102        O  0.14756679  0.58222405  0.29314375    -0.71700
O103        O  0.15687883  0.50038133  0.29224940    -0.71600
O104        O  0.10676737  0.58045073  0.17975995    -0.71800
V105        V  0.05320654  0.53781609  0.26253324     1.35200
V106        V  0.13013911  0.54016297  0.23648472     1.35200
C107        C  0.05862499  0.59383658  0.17558379     0.77600
C108        C  0.12518620  0.48532898  0.32427731     0.77700
C109        C  0.11230309  0.59594767  0.32472848     0.77500
C110        C  0.07176449  0.47999710  0.17723915     0.77500
O111        O  0.22699754  0.99494869  0.04163387    -0.71600
O112        O  0.17613213  0.09282118  0.46495323    -0.71800
O113        O  0.16159209  0.01270089  0.44926332    -0.71700
O114        O  0.23063708  0.07586844  0.05559620    -0.71700
O115        O  0.05681491  0.07666720  0.02643328    -0.71700
O116        O  0.99244502  0.99968877  0.42014540    -0.71700
O117        O  0.00050078  0.08135553  0.42203895    -0.71600
O118        O  0.05663291  0.99474207  0.01450179    -0.71800
V119        V  0.19509359  0.04570712  0.51105402     1.35200
V120        V  0.02193737  0.03877491  0.47574987     1.35200
C121        C  0.02312357  0.97844507  0.04290279     0.77600
C122        C  0.20670913  0.10311345  0.42765641     0.77700
C123        C  0.19118291  0.99236504  0.41731272     0.77500
C124        C  0.02411138  0.08994766  0.06146030     0.77500
C125        C  0.14239791  0.45026323  0.36032472    -0.16300
C126        C  0.15642939  0.41568385  0.33304293    -0.31500
H127        H  0.13928177  0.45148088  0.40797122     0.12700
H128        H  0.15600922  0.41458708  0.28472831     0.13300
C129        C  0.23120489  0.15531742  0.36099972    -0.16300
C130        C  0.19518760  0.14055019  0.39366783    -0.31500
H131        H  0.26933315  0.13897363  0.35830559     0.12700
H132        H  0.15725875  0.15706131  0.39686361     0.13300
C133        C  0.10166710  0.42030168  0.11963159    -0.16300
C134        C  0.06243745  0.44164621  0.14364578    -0.31500
H135        H  0.14149229  0.43234721  0.12259104     0.12700
H136        H  0.02261772  0.42960932  0.14084414     0.13300
C137        C  0.03736792  0.12381313  0.10263463    -0.16300
C138        C  0.04446425  0.16014638  0.08018164    -0.31500
H139        H  0.28937506  0.11882127  0.14825330     0.12700
H140        H  0.04254162  0.16306623  0.03199178     0.13300
C141        C  0.13295882  0.66644203  0.34167055    -0.16300
C142        C  0.12247957  0.63100734  0.36449299    -0.31500
H143        H  0.13366286  0.66846469  0.29367947     0.12700
H144        H  0.11831519  0.62858148  0.41165463     0.13300
C145        C  0.19874224  0.92339464  0.38104557    -0.16300
C146        C  0.16973450  0.95845207  0.38093005    -0.31500
H147        H  0.23752360  0.92133823  0.40834201     0.12700
H148        H  0.12904508  0.96158784  0.35921661     0.13300
C149        C  0.04096598  0.62958960  0.13976360    -0.16300
C150        C  0.07486576  0.65933607  0.13336514    -0.31500
H151        H  0.99863509  0.63284507  0.12377600     0.12700
H152        H  0.11552467  0.65675462  0.15613433     0.13300
C153        C  0.03761143  0.94037854  0.07402223    -0.16300
C154        C  0.00153551  0.92096515  0.10090528    -0.31500
H155        H  0.07832981  0.92776268  0.07439422     0.13700
H156        H  0.96098940  0.93394303  0.10060636     0.13300
C157        C  0.00731649  0.88126339  0.64480133     0.86600
C158        C  0.96297382  0.86676148  0.67921753    -0.53600
C159        C  0.97707904  0.83332484  0.71316058     0.09600
C160        C  0.03302011  0.81495004  0.70319953     0.20500
C161        C  0.05661490  0.88422997  0.69159209    -0.54300
C162        C  0.07039423  0.84966223  0.72257156     0.09700
C163        C  0.01995391  0.84555833  0.60430263    -0.53900
C164        C  0.03282086  0.81005979  0.63370308     0.10200
H165        H  0.17498135  0.88606840  0.68756250     0.14700
H166        H  0.04334240  0.78715695  0.72918549     0.00500
H167        H  0.07785739  0.91198138  0.70050605     0.15100
H168        H  0.01774351  0.84873224  0.55641677     0.14800
C169        C  0.06976547  0.69995201  0.58821749     0.86600
C170        C  0.05872149  0.73556484  0.62981053    -0.53600
C171        C  0.04390459  0.77098927  0.60076922     0.09600
C172        C  0.04072612  0.76617350  0.53094874     0.20500
C173        C  0.01859959  0.69675397  0.54415230    -0.54300
C174        C  0.99805464  0.72966958  0.01955523     0.09700
C175        C  0.11174162  0.71484385  0.55089282    -0.53900
C176        C  0.09583658  0.74819317  0.51779311     0.10200
H177        H  0.06350703  0.73259000  0.67789187     0.14700
H178        H  0.03106635  0.78880358  0.00487515     0.00500
H179        H  0.24705524  0.66788862  0.53122507     0.15100
H180        H  0.14667085  0.69603842  0.54251304     0.14800
C181        C  0.17704552  0.87890058  0.85068127     0.86600
C182        C  0.21971643  0.86637763  0.81004129    -0.53600
C183        C  0.20754504  0.83349256  0.77385256     0.09600
C184        C  0.15552500  0.81405835  0.78641348     0.20500
C185        C  0.12413808  0.88224590  0.80939199    -0.54300
C186        C  0.11294468  0.84865982  0.77465246     0.09700
C187        C  0.17262476  0.84173340  0.88818650    -0.53900
C188        C  0.16212937  0.80707787  0.85548965     0.10200
H189        H  0.00346469  0.88561121  0.80384717     0.14700
H190        H  0.14664266  0.78708831  0.75769632     0.00500
H191        H  0.09927139  0.90992169  0.80569255     0.15100
H192        H  0.17901984  0.84320014  0.93646166     0.14800
C193        C  0.14756928  0.69488907  0.89048620     0.86600
C194        C  0.15225597  0.73170598  0.85229346    -0.53600
C195        C  0.15983407  0.76691119  0.88464406     0.09600
C196        C  0.16364391  0.76067708  0.95378078     0.20500
C197        C  0.19864507  0.69286016  0.93499140    -0.54300
C198        C  0.20704080  0.72724125  0.96861823     0.09700
C199        C  0.10267456  0.70671653  0.92827429    -0.53900
C200        C  0.11210375  0.73993781  0.96399466     0.10200
H201        H  0.14851852  0.72960757  0.80401632     0.14700
H202        H  0.16993765  0.78797578  0.98246888     0.00500
H203        H  0.22422059  0.66567566  0.94169002     0.15100
H204        H  0.07106406  0.68638159  0.93447055     0.14800
C205        C  0.06401132  0.19945318  0.61861347     0.86600
C206        C  0.06679604  0.23666615  0.58121982    -0.53600
C207        C  0.07442694  0.27168632  0.61362680     0.09600
C208        C  0.07981127  0.26504807  0.68289288     0.20500
C209        C  0.11613205  0.19797354  0.66123232    -0.54300
C210        C  0.12435397  0.23196624  0.69606953     0.09700
C211        C  0.01966752  0.21017160  0.65792972    -0.53900
C212        C  0.02888786  0.24340791  0.69417243     0.10200
H213        H  0.06229830  0.23467554  0.53298520     0.14700
H214        H  0.08624520  0.29245509  0.71140627     0.00500
H215        H  0.14241389  0.17105696  0.66601667     0.15100
H216        H  0.23372404  0.19318437  0.66571365     0.14800
C217        C  0.09263195  0.38270281  0.57526834     0.86600
C218        C  0.13686531  0.36875718  0.53738727    -0.53600
C219        C  0.12572865  0.33514386  0.50271829     0.09600
C220        C  0.07280853  0.31660942  0.51396624     0.20500
C221        C  0.04135114  0.38551125  0.53118706    -0.54300
C222        C  0.03209294  0.35093186  0.00363765     0.09700
C223        C  0.08629688  0.34677797  0.61470567    -0.53900
C224        C  0.07682792  0.31141497  0.58341478     0.10200
H225        H  0.16944185  0.38798826  0.53039092     0.14700
H226        H  0.06590217  0.28906643  0.99116891     0.00500
H227        H  0.26476167  0.41326370  0.52194993     0.15100
H228        H  0.09096800  0.34934061  0.66299156     0.14800
C229        C  0.22883606  0.19989348  0.82640119     0.86600
C230        C  0.21888536  0.23628239  0.86668792    -0.53600
C231        C  0.20664103  0.27166580  0.83690471     0.09600
C232        C  0.20429740  0.26608493  0.76712761     0.20500
C233        C  0.17840363  0.19766638  0.78128504    -0.54300
C234        C  0.16541623  0.23197433  0.74952818     0.09700
C235        C  0.27261595  0.21284428  0.78952126    -0.53900
C236        C  0.25907096  0.24643663  0.75545183     0.10200
H237        H  0.22223278  0.23364360  0.91475427     0.14700
H238        H  0.19417754  0.29371433  0.74070159     0.00500
H239        H  0.15636303  0.17021439  0.77303508     0.15100
H240        H  0.05632569  0.18946121  0.78131088     0.14800
C241        C  0.17307896  0.38249400  0.88089096     0.86600
C242        C  0.13120353  0.36855102  0.91906566    -0.53600
C243        C  0.14666548  0.33535239  0.95269870     0.09600
C244        C  0.20152900  0.31677015  0.93953952     0.20500
C245        C  0.22447407  0.38589744  0.92441401    -0.54300
C246        C  0.23955359  0.35160270  0.95559571     0.09700
C247        C  0.18324172  0.34638368  0.84002450    -0.53900
C248        C  0.19759481  0.31117948  0.86964588     0.10200
H249        H  0.09642140  0.38765656  0.92690043     0.14700
H250        H  0.21318975  0.28937719  0.96598021     0.00500
H251        H  0.24588638  0.41369967  0.93141974     0.15100
H252        H  0.17794296  0.34888578  0.79187132     0.14800
O253        O  0.05174132  0.58095767  0.70693656    -0.71600
O254        O  0.12054125  0.49747177  0.80389362    -0.71800
O255        O  0.11561954  0.57949523  0.80827597    -0.71700
O256        O  0.05679820  0.49855006  0.70242216    -0.71700
O257        O  0.12740894  0.49920320  0.65537677    -0.71700
O258        O  0.18535793  0.58134866  0.75997340    -0.71700
O259        O  0.19114233  0.49900289  0.75699089    -0.71600
O260        O  0.12151957  0.58182005  0.65857136    -0.71800
V261        V  0.08759639  0.53915042  0.75451649     1.35200
V262        V  0.15491862  0.54028908  0.70846696     1.35200
C263        C  0.07663107  0.59747458  0.66914207     0.77600
C264        C  0.16603062  0.48244427  0.79458413     0.77700
C265        C  0.15830407  0.59614258  0.79941470     0.77500
C266        C  0.08427988  0.48302780  0.66385825     0.77500
O267        O  0.21175396  0.99839023  0.55752290    -0.71600
O268        O  0.18550839  0.08555415  0.94362350    -0.71800
O269        O  0.18150970  0.00321807  0.93105532    -0.71700
O270        O  0.22547789  0.07913789  0.57438099    -0.71700
O271        O  0.05377403  0.07768183  0.53025266    -0.71700
O272        O  0.01245222  0.00157664  0.90214325    -0.71700
O273        O  0.01368050  0.08336335  0.91433762    -0.71600
O274        O  0.04650380  0.99592429  0.52788003    -0.71800
V275        V  0.20761800  0.03997582  0.99213633     1.35200
V276        V  0.03336867  0.03908927  0.96491228     1.35200
C277        C  0.01369802  0.98052423  0.55830142     0.77600
C278        C  0.21896025  0.10112919  0.91400561     0.77700
C279        C  0.21352071  0.98779703  0.89693907     0.77500
C280        C  0.02743621  0.09188685  0.57085755     0.77500
C281        C  0.18737663  0.44471568  0.82364283    -0.16300
C282        C  0.15483873  0.42155166  0.85021488    -0.31500
H283        H  0.22874411  0.43472984  0.82051080     0.12700
H284        H  0.11339476  0.43201752  0.85195160     0.13300
C285        C  0.24258605  0.16024692  0.85827297    -0.16300
C286        C  0.20596839  0.14029631  0.88422504    -0.31500
H287        H  0.28272369  0.14674381  0.85753437     0.12700
H288        H  0.16574722  0.15364572  0.88489710     0.13300
C289        C  0.10523886  0.42211050  0.60721088    -0.16300
C290        C  0.06881142  0.44493171  0.63328107    -0.31500
H291        H  0.14531854  0.43317157  0.60660710     0.12700
H292        H  0.02880337  0.43421447  0.63536142     0.13300
C293        C  0.04667713  0.12597496  0.60848816    -0.16300
C294        C  0.05512802  0.16094471  0.58267198    -0.31500
H295        H  0.28885585  0.12668284  0.65594888     0.12700
H296        H  0.05243228  0.16216041  0.53421920     0.13300
C297        C  0.13644672  0.65579837  0.85736222    -0.16300
C298        C  0.17338371  0.63401178  0.83072980    -0.31500
H299        H  0.09665752  0.64405322  0.85736295     0.12700
H300        H  0.21312488  0.64531940  0.82895560     0.13300
C301        C  0.18889962  0.91746420  0.88602626    -0.16300
C302        C  0.19874880  0.95215121  0.85974545    -0.31500
H303        H  0.19048142  0.91682471  0.93440806     0.12700
H304        H  0.20090046  0.95291182  0.81197631     0.13300
C305        C  0.05558873  0.63591016  0.64172712    -0.16300
C306        C  0.08832269  0.66033678  0.61762949    -0.31500
H307        H  0.01400867  0.64544977  0.64451671     0.12700
H308        H  0.13001022  0.65034294  0.61640765     0.13300
C309        C  0.02815854  0.94185808  0.58861432    -0.16300
C310        C  0.99219138  0.92085344  0.61357192    -0.31500
H311        H  0.06896024  0.92950813  0.58853762     0.13700
H312        H  0.95139082  0.93326474  0.61344010     0.13300
C313        C  0.26619152  0.88353841  0.13728504     0.86600
C314        C  0.22251490  0.87241840  0.17512349    -0.53600
C315        C  0.23591901  0.83979774  0.21082922     0.09600
C316        C  0.29029784  0.81944950  0.20114809     0.20500
C317        C  0.31691538  0.88691898  0.18196507    -0.54300
C318        C  0.32957724  0.85350764  0.21592219     0.09700
C319        C  0.27553313  0.84576909  0.09958306    -0.53900
C320        C  0.28721989  0.81150511  0.13220155     0.10200
H321        H  0.43821604  0.89187462  0.17880586     0.14700
H322        H  0.30007071  0.79296462  0.23004855     0.00500
H323        H  0.33941179  0.91426859  0.18803108     0.15100
H324        H  0.27127092  0.84657486  0.05129075     0.14800
C325        C  0.31189438  0.69820732  0.09911874     0.86600
C326        C  0.30451855  0.73656208  0.13620674    -0.53600
C327        C  0.29275225  0.77063139  0.10338436     0.09600
C328        C  0.28797826  0.76213886  0.03461294     0.20500
C329        C  0.26008142  0.69530685  0.05653614    -0.54300
C330        C  0.25191990  0.73060020  0.50961924     0.09700
C331        C  0.35471805  0.70812788  0.05923623    -0.53900
C332        C  0.34151310  0.74102691  0.02358954     0.10200
H333        H  0.30969648  0.73617320  0.18451004     0.14700
H334        H  0.27644708  0.79367566  0.50284577     0.00500
H335        H  0.47706337  0.67097375  0.05281405     0.15100
H336        H  0.38752998  0.68696976  0.05226118     0.14800
C337        C  0.43435797  0.88517449  0.34471936     0.86600
C338        C  0.47709069  0.87343826  0.30407313    -0.53600
C339        C  0.46640932  0.84017643  0.26860049     0.09600
C340        C  0.41497947  0.81978763  0.28091988     0.20500
C341        C  0.38142328  0.88766507  0.30252342    -0.54300
C342        C  0.37164371  0.85365965  0.26829007     0.09700
C343        C  0.43077592  0.84801056  0.38246506    -0.53900
C344        C  0.42082970  0.81318192  0.35017776     0.10200
H345        H  0.25908358  0.89368240  0.29937128     0.14700
H346        H  0.40711973  0.79265370  0.25224693     0.00500
H347        H  0.35544536  0.91453096  0.29647375     0.15100
H348        H  0.43642789  0.84976097  0.43076716     0.14800
C349        C  0.39691937  0.70259072  0.38527009     0.86600
C350        C  0.40558919  0.73869524  0.34748265    -0.53600
C351        C  0.41613791  0.77344377  0.37989654     0.09600
C352        C  0.41882635  0.76731217  0.44922203     0.20500
C353        C  0.44750072  0.69793250  0.43028025    -0.54300
C354        C  0.45946289  0.73167603  0.46401591     0.09700
C355        C  0.35246945  0.71713074  0.42237904    -0.53900
C356        C  0.36450030  0.74978587  0.45892518     0.10200
H357        H  0.40172633  0.73657706  0.29920667     0.14700
H358        H  0.42770142  0.79434958  0.47774472     0.00500
H359        H  0.47113821  0.66976923  0.43592189     0.15100
H360        H  0.31884141  0.69849084  0.42751975     0.14800
C361        C  0.30893476  0.19541695  0.11758050     0.86600
C362        C  0.31275952  0.23352219  0.08226145    -0.53600
C363        C  0.32014992  0.26779765  0.11636172     0.09600
C364        C  0.32354858  0.25975144  0.18493559     0.20500
C365        C  0.36023060  0.19304690  0.16167905    -0.54300
C366        C  0.36763903  0.22652206  0.19775679     0.09700
C367        C  0.26370406  0.20513019  0.15615068    -0.53900
C368        C  0.27240127  0.23772395  0.19386258     0.10200
H369        H  0.30997546  0.23256620  0.03405689     0.14700
H370        H  0.32943766  0.28655190  0.21484178     0.00500
H371        H  0.38667985  0.16620300  0.16623860     0.15100
H372        H  0.48116856  0.18529801  0.15838774     0.14800
C373        C  0.34744451  0.37834622  0.08484914     0.86600
C374        C  0.39117897  0.36349554  0.04689016    -0.53600
C375        C  0.37772389  0.33149180  0.00966657     0.09600
C376        C  0.32323742  0.31471086  0.01959279     0.20500
C377        C  0.29659483  0.38413067  0.04026966    -0.54300
C378        C  0.28070720  0.35132627  0.49602555     0.09700
C379        C  0.33789627  0.34200237  0.12195024    -0.53900
C380        C  0.32597531  0.30788137  0.08855539     0.10200
H381        H  0.42501508  0.38180455  0.04128667     0.14700
H382        H  0.31659670  0.29012072  0.48329025     0.00500
H383        H  0.51650897  0.41197302  0.02960506     0.15100
H384        H  0.34234219  0.34332642  0.17030138     0.14800
C385        C  0.47191199  0.19442666  0.32706547     0.86600
C386        C  0.46677281  0.23262643  0.36532668    -0.53600
C387        C  0.45558887  0.26719795  0.33336147     0.09600
C388        C  0.44995918  0.25936579  0.26410089     0.20500
C389        C  0.41964209  0.19308602  0.28478666    -0.54300
C390        C  0.40840483  0.22666573  0.25096711     0.09700
C391        C  0.51452622  0.20358424  0.28604559    -0.53900
C392        C  0.50239075  0.23706253  0.25131312     0.10200
H393        H  0.47230061  0.23172497  0.41363842     0.14700
H394        H  0.44042072  0.28611083  0.23563634     0.00500
H395        H  0.39566958  0.16645247  0.27893151     0.15100
H396        H  0.29645730  0.18204479  0.28072644     0.14800
C397        C  0.42989499  0.38033581  0.36851821     0.86600
C398        C  0.38461236  0.36973913  0.40481689    -0.53600
C399        C  0.39633679  0.33669377  0.44061514     0.09600
C400        C  0.45085715  0.31572751  0.43211508     0.20500
C401        C  0.47972181  0.38291856  0.41421039    -0.54300
C402        C  0.49055659  0.34949673  0.44840644     0.09700
C403        C  0.43943330  0.34243963  0.33101534    -0.53900
C404        C  0.44959549  0.30793542  0.36319124     0.10200
H405        H  0.35067640  0.39052075  0.40964694     0.14700
H406        H  0.45948051  0.28888681  0.46058846     0.00500
H407        H  0.50292754  0.40990808  0.42078017     0.15100
H408        H  0.43700014  0.34339932  0.28283414     0.14800
O409        O  0.31338349  0.58008842  0.18648704    -0.71600
O410        O  0.35454470  0.50886100  0.31482463    -0.71800
O411        O  0.35736893  0.58937647  0.29750039    -0.71700
O412        O  0.31027006  0.49900087  0.20306049    -0.71700
O413        O  0.38926669  0.49136171  0.17310146    -0.71700
O414        O  0.43709113  0.58083453  0.26974851    -0.71700
O415        O  0.43315840  0.49930389  0.28429274    -0.71600
O416        O  0.39279785  0.57207628  0.15748272    -0.71800
V417        V  0.33543783  0.54415443  0.24984121     1.35200
V418        V  0.41161897  0.53611069  0.22182379     1.35200
C419        C  0.34704484  0.58987633  0.15246093     0.77600
C420        C  0.39951464  0.48997541  0.31866001     0.77700
C421        C  0.40430812  0.60164096  0.29741144     0.77500
C422        C  0.34263371  0.47868359  0.17428641     0.77500
O423        O  0.47616342  0.99475157  0.04114000    -0.71600
O424        O  0.43043888  0.09243646  0.46716715    -0.71800
O425        O  0.41466736  0.01216198  0.45062673    -0.71700
O426        O  0.47802771  0.07590123  0.05366714    -0.71700
O427        O  0.30924068  0.07466825  0.02395446    -0.71700
O428        O  0.24040720  0.99989285  0.42062891    -0.71700
O429        O  0.24828195  0.08126842  0.42170209    -0.71600
O430        O  0.30590537  0.99296614  0.01091138    -0.71800
V431        V  0.44967098  0.04468314  0.51215930     1.35200
V432        V  0.26839271  0.03933422  0.47642795     1.35200
C433        C  0.27285514  0.97768800  0.04112447     0.77600
C434        C  0.46026707  0.10288003  0.42908077     0.77700
C435        C  0.44345435  0.99153674  0.41808569     0.77500
C436        C  0.27750664  0.08867287  0.05954939     0.77500
C437        C  0.41000824  0.45482146  0.35738794    -0.16300
C438        C  0.41956082  0.41832860  0.33248813    -0.31500
H439        H  0.40526618  0.45780957  0.40455061     0.12700
H440        H  0.42074879  0.41602001  0.28444393     0.13300
C441        C  0.48381833  0.15580955  0.36192591    -0.16300
C442        C  0.44862330  0.14089615  0.39581657    -0.31500
H443        H  0.52154440  0.13922089  0.35791774     0.12700
H444        H  0.41105699  0.15757718  0.40028358     0.13300
C445        C  0.36267958  0.41634606  0.11949646    -0.16300
C446        C  0.32693211  0.44021765  0.14492390    -0.31500
H447        H  0.40360570  0.42598686  0.12018333     0.12700
H448        H  0.28580834  0.43116525  0.14451850     0.13300
C449        C  0.29260442  0.12195289  0.10098870    -0.16300
C450        C  0.30109307  0.15804990  0.07875918    -0.31500
H451        H  0.53735965  0.11997104  0.14489974     0.12700
H452        H  0.30033268  0.16087614  0.03067163     0.13300
C453        C  0.38307254  0.66408775  0.35122068    -0.16300
C454        C  0.41955720  0.64027568  0.32670062    -0.31500
H455        H  0.34225098  0.65413579  0.35001129     0.12700
H456        H  0.46064903  0.64951697  0.32764735     0.13300
C457        C  0.45028136  0.92250146  0.38107092    -0.16300
C458        C  0.42117214  0.95750717  0.38222361    -0.31500
H459        H  0.48962638  0.92052051  0.40718971     0.12700
H460        H  0.38009294  0.96054234  0.36161646     0.13300
C461        C  0.33506691  0.62421627  0.11239776    -0.16300
C462        C  0.32441192  0.66085060  0.13614965    -0.31500
H463        H  0.33883408  0.62048294  0.06510156     0.12700
H464        H  0.32439908  0.66382700  0.18430356     0.13300
C465        C  0.28715475  0.93980987  0.07317867    -0.16300
C466        C  0.25169221  0.92163164  0.10266154    -0.31500
H467        H  0.32724164  0.92628084  0.07208416     0.13700
H468        H  0.21176970  0.93547448  0.10381608     0.13300
C469        C  0.25212166  0.88093640  0.64251770     0.86600
C470        C  0.20955766  0.86676938  0.67956408    -0.53600
C471        C  0.22491961  0.83337511  0.71312589     0.09600
C472        C  0.28003540  0.81483073  0.70070894     0.20500
C473        C  0.30314009  0.88388631  0.68702099    -0.54300
C474        C  0.31803255  0.84943437  0.71789445     0.09700
C475        C  0.26284364  0.84498614  0.60160365    -0.53900
C476        C  0.27707204  0.80966118  0.63104248     0.10200
H477        H  0.42684733  0.88551307  0.68340451     0.14700
H478        H  0.29133116  0.78722738  0.72680448     0.00500
H479        H  0.32455861  0.91164045  0.69489627     0.15100
H480        H  0.25857913  0.84787786  0.55355344     0.14800
C481        C  0.31665460  0.70004042  0.58664267     0.86600
C482        C  0.30269940  0.73521586  0.62761464    -0.53600
C483        C  0.28839072  0.77062509  0.59833257     0.09600
C484        C  0.28801454  0.76608405  0.52882838     0.20500
C485        C  0.26731648  0.69606154  0.54008274    -0.54300
C486        C  0.24791325  0.72834844  0.02168848     0.09700
C487        C  0.36007521  0.71607932  0.55224500    -0.53900
C488        C  0.34464412  0.74936786  0.51865745     0.10200
H489        H  0.30565435  0.73200733  0.67556298     0.14700
H490        H  0.27789352  0.78856004  0.00559374     0.00500
H491        H  0.49667102  0.66955678  0.54129762     0.15100
H492        H  0.39608782  0.69794953  0.54584312     0.14800
C493        C  0.42412314  0.87921871  0.84652272     0.86600
C494        C  0.46787723  0.86651558  0.80738307    -0.53600
C495        C  0.45655631  0.83352474  0.77106017     0.09600
C496        C  0.40389581  0.81413029  0.78239174     0.20500
C497        C  0.37212745  0.88256374  0.80383897    -0.54300
C498        C  0.36142465  0.84884868  0.76924732     0.09700
C499        C  0.41865452  0.84234534  0.88404699    -0.53900
C500        C  0.40894307  0.80751128  0.85176456     0.10200
H501        H  0.25195513  0.88593600  0.80326922     0.14700
H502        H  0.39557467  0.78694237  0.75393198     0.00500
H503        H  0.34713334  0.91016532  0.79976520     0.15100
H504        H  0.42376454  0.84418157  0.93232730     0.14800
C505        C  0.39474786  0.69569018  0.88979664     0.86600
C506        C  0.39839087  0.73221660  0.85064969    -0.53600
C507        C  0.40645102  0.76766257  0.88213916     0.09600
C508        C  0.41148798  0.76195419  0.95176584     0.20500
C509        C  0.44663686  0.69419689  0.93327269    -0.54300
C510        C  0.45536996  0.72878073  0.96639907     0.09700
C511        C  0.35060198  0.70765982  0.92862006    -0.53900
C512        C  0.36038619  0.74107845  0.96379217     0.10200
H513        H  0.39378039  0.72980917  0.80235785     0.14700
H514        H  0.41817972  0.78942447  0.97996146     0.00500
H515        H  0.47211698  0.66700088  0.94048535     0.15100
H516        H  0.31926830  0.68729841  0.93580052     0.14800
C517        C  0.30755128  0.20121437  0.61692942     0.86600
C518        C  0.31099469  0.23828536  0.57925790    -0.53600
C519        C  0.32207647  0.27292778  0.61146775     0.09600
C520        C  0.32881962  0.26615196  0.68093911     0.20500
C521        C  0.36084190  0.19818907  0.65740389    -0.54300
C522        C  0.37173022  0.23172880  0.69226364     0.09700
C523        C  0.26535684  0.21316239  0.65847288    -0.53900
C524        C  0.27724136  0.24609915  0.69461685     0.10200
H525        H  0.30465011  0.23655500  0.53101007     0.14700
H526        H  0.33779266  0.29327822  0.70933948     0.00500
H527        H  0.38592103  0.17060913  0.66108403     0.15100
H528        H  0.48648882  0.18778967  0.66571473     0.14800
C529        C  0.34148525  0.38394396  0.57279130     0.86600
C530        C  0.38600841  0.37101357  0.53495926    -0.53600
C531        C  0.37580636  0.33755445  0.49987384     0.09600
C532        C  0.32366038  0.31763025  0.51127949     0.20500
C533        C  0.29020186  0.38601025  0.52857366    -0.54300
C534        C  0.28360212  0.35077057  0.00597336     0.09700
C535        C  0.33606397  0.34778426  0.61214197    -0.53900
C536        C  0.32713293  0.31235468  0.58088799     0.10200
H537        H  0.41821637  0.39074953  0.52844203     0.14700
H538        H  0.31339821  0.28834020  0.99010048     0.00500
H539        H  0.51826242  0.41114742  0.53030418     0.15100
H540        H  0.33966609  0.35044865  0.66039955     0.14800
C541        C  0.47378361  0.19751859  0.82382304     0.86600
C542        C  0.46301101  0.23404325  0.86342145    -0.53600
C543        C  0.45275406  0.26945129  0.83316298     0.09600
C544        C  0.45254431  0.26368764  0.76385359     0.20500
C545        C  0.42463241  0.19561905  0.77679940    -0.54300
C546        C  0.41325636  0.23015390  0.74501833     0.09700
C547        C  0.51927775  0.20983970  0.78937041    -0.53900
C548        C  0.50733316  0.24315885  0.75471171     0.10200
H549        H  0.46445134  0.23144519  0.91133527     0.14700
H550        H  0.44412197  0.29140821  0.73722088     0.00500
H551        H  0.40191194  0.16853687  0.76806647     0.15100
H552        H  0.30655421  0.19271632  0.78209247     0.14800
C553        C  0.41926060  0.38039999  0.87633079     0.86600
C554        C  0.37866443  0.36614679  0.91595030    -0.53600
C555        C  0.39527479  0.33287939  0.94909629     0.09600
C556        C  0.45003042  0.31496560  0.93486784     0.20500
C557        C  0.47148370  0.38415625  0.91840681    -0.54300
C558        C  0.48772339  0.35012318  0.94959754     0.09700
C559        C  0.42884698  0.34417444  0.83534283    -0.53900
C560        C  0.44438816  0.30917396  0.86515727     0.10200
H561        H  0.34402932  0.38504852  0.92484314     0.14700
H562        H  0.46290273  0.28782611  0.96141481     0.00500
H563        H  0.49239571  0.41220223  0.92506451     0.15100
H564        H  0.42200540  0.34631207  0.78716830     0.14800
O565        O  0.29790264  0.58090302  0.70532689    -0.71600
O566        O  0.36641117  0.49747402  0.80326742    -0.71800
O567        O  0.36092540  0.57993026  0.80749061    -0.71700
O568        O  0.30357295  0.49848697  0.70122750    -0.71700
O569        O  0.37386659  0.50037790  0.65383849    -0.71700
O570        O  0.43196775  0.58090072  0.76119678    -0.71700
O571        O  0.43675983  0.49857797  0.75585872    -0.71600
O572        O  0.36890818  0.58281462  0.65919180    -0.71800
V573        V  0.33363574  0.53926007  0.75354817     1.35200
V574        V  0.40142444  0.54062745  0.70830867     1.35200
C575        C  0.32338389  0.59788714  0.66846789     0.77600
C576        C  0.41149501  0.48195979  0.79324320     0.77700
C577        C  0.40427572  0.59610066  0.79978658     0.77500
C578        C  0.33107231  0.48367422  0.66217922     0.77500
O579        O  0.46697662  0.99725945  0.55781108    -0.71600
O580        O  0.43119983  0.08399481  0.94207236    -0.71800
O581        O  0.42940645  0.00186728  0.93066434    -0.71700
O582        O  0.48155593  0.07700134  0.57562570    -0.71700
O583        O  0.29851040  0.07878685  0.53122089    -0.71700
O584        O  0.26008036  0.00129880  0.89935624    -0.71700
O585        O  0.26428776  0.08322321  0.91265527    -0.71600
O586        O  0.29166660  0.99688398  0.52941130    -0.71800
V587        V  0.45517514  0.03918409  0.99111381     1.35200
V588        V  0.28332957  0.03805469  0.96224579     1.35200
C589        C  0.25768005  0.98093138  0.55756690     0.77600
C590        C  0.46382403  0.09965370  0.91159662     0.77700
C591        C  0.46111452  0.98722114  0.89559338     0.77500
C592        C  0.27099546  0.09301236  0.57081660     0.77500
C593        C  0.43249185  0.44367354  0.82098198    -0.16300
C594        C  0.40005642  0.41958208  0.84615463    -0.31500
H595        H  0.47397781  0.43402729  0.81784235     0.12700
H596        H  0.35846779  0.42963094  0.84797476     0.13300
C597        C  0.48668370  0.15817361  0.85597773    -0.16300
C598        C  0.44971969  0.13815751  0.88088316    -0.31500
H599        H  0.52717973  0.14501069  0.85687063     0.12700
H600        H  0.40911694  0.15100272  0.88037997     0.13300
C601        C  0.35309634  0.42341471  0.60490770    -0.16300
C602        C  0.31618447  0.44569071  0.63096850    -0.31500
H603        H  0.39297880  0.43493039  0.60467762     0.12700
H604        H  0.27636850  0.43451841  0.63278583     0.13300
C605        C  0.28869545  0.12784266  0.60782503    -0.16300
C606        C  0.29595808  0.16287260  0.58138695    -0.31500
H607        H  0.54519624  0.12251979  0.65775433     0.12700
H608        H  0.29194211  0.16399402  0.53287252     0.13300
C609        C  0.38308157  0.65628567  0.85749529    -0.16300
C610        C  0.41971990  0.63390585  0.83125182    -0.31500
H611        H  0.34309616  0.64491057  0.85760836     0.12700
H612        H  0.45967966  0.64482521  0.82953187     0.13300
C613        C  0.43517465  0.91756807  0.88244088    -0.16300
C614        C  0.44629787  0.95221824  0.85721395    -0.31500
H615        H  0.43537301  0.91673788  0.93066626     0.12700
H616        H  0.45007167  0.95319411  0.80979818     0.13300
C617        C  0.30219055  0.63609585  0.64035777    -0.16300
C618        C  0.33509424  0.66062323  0.61667849    -0.31500
H619        H  0.26033000  0.64530850  0.64199898     0.12700
H620        H  0.37702863  0.65096288  0.61661072     0.13300
C621        C  0.27156613  0.94178199  0.58656817    -0.16300
C622        C  0.23594734  0.92052212  0.61158589    -0.31500
H623        H  0.31227216  0.92938011  0.58582190     0.13700
H624        H  0.19528438  0.93295348  0.61256342     0.13300
C625        C  0.51647168  0.88317053  0.13548427     0.86600
C626        C  0.47261383  0.87174152  0.17313108    -0.53600
C627        C  0.48608890  0.83922410  0.20908775     0.09600
C628        C  0.54090806  0.81934016  0.19960767     0.20500
C629        C  0.56687371  0.88694413  0.18059280    -0.54300
C630        C  0.57971169  0.85364164  0.21468515     0.09700
C631        C  0.52654819  0.84541504  0.09777637    -0.53900
C632        C  0.53851935  0.81127257  0.13047205     0.10200
H633        H  0.68863854  0.89222066  0.17939450     0.14700
H634        H  0.55104564  0.79316861  0.22896110     0.00500
H635        H  0.58902031  0.91445134  0.18681479     0.15100
H636        H  0.52222615  0.84588621  0.04941475     0.14800
C637        C  0.55432025  0.69691983  0.10085390     0.86600
C638        C  0.55138657  0.73646056  0.13579602    -0.53600
C639        C  0.54364681  0.77014055  0.10185915     0.09600
C640        C  0.53916800  0.76023971  0.03317718     0.20500
C641        C  0.50267185  0.69667388  0.05756214    -0.54300
C642        C  0.50380873  0.73115919  0.51433112     0.09700
C643        C  0.59883628  0.70203697  0.06073278    -0.53900
C644        C  0.59027090  0.73468960  0.02360487     0.10200
H645        H  0.55492813  0.73684693  0.18402269     0.14700
H646        H  0.53080457  0.79310762  0.50255370     0.00500
H647        H  0.73818658  0.66799820  0.05128872     0.15100
H648        H  0.63029394  0.67898689  0.05637259     0.14800
C649        C  0.68362257  0.88528953  0.34457655     0.86600
C650        C  0.72687341  0.87361656  0.30451802    -0.53600
C651        C  0.71644989  0.84038120  0.26893691     0.09600
C652        C  0.66484144  0.82009636  0.28049633     0.20500
C653        C  0.63106197  0.88787513  0.30169212    -0.54300
C654        C  0.62156620  0.85392627  0.26735114     0.09700
C655        C  0.67973748  0.84816737  0.38225083    -0.53900
C656        C  0.67027558  0.81343888  0.34978134     0.10200
H657        H  0.50876777  0.89356252  0.29718886     0.14700
H658        H  0.65722160  0.79317963  0.25137063     0.00500
H659        H  0.60522562  0.91478727  0.29522072     0.15100
H660        H  0.68528000  0.84970774  0.43059831     0.14800
C661        C  0.65218817  0.70172934  0.38178026     0.86600
C662        C  0.65866217  0.73908378  0.34587928    -0.53600
C663        C  0.66707785  0.77347766  0.37908640     0.09600
C664        C  0.67013345  0.76621485  0.44797708     0.20500
C665        C  0.70308677  0.69806409  0.42651195    -0.54300
C666        C  0.71268691  0.73164743  0.46195886     0.09700
C667        C  0.60695148  0.71368002  0.41987427    -0.53900
C668        C  0.61714936  0.74655752  0.45713190     0.10200
H669        H  0.65539673  0.73783510  0.29764218     0.14700
H670        H  0.67734973  0.79321671  0.47711966     0.00500
H671        H  0.72845526  0.67066267  0.43058409     0.15100
H672        H  0.57434113  0.69389000  0.42438266     0.14800
C673        C  0.55666324  0.19639247  0.11342126     0.86600
C674        C  0.56014759  0.23463437  0.07816485    -0.53600
C675        C  0.56893301  0.26872340  0.11233289     0.09600
C676        C  0.57338715  0.26027197  0.18122762     0.20500
C677        C  0.60875619  0.19349557  0.15621503    -0.54300
C678        C  0.61717148  0.22660692  0.19279984     0.09700
C679        C  0.51253919  0.20612476  0.15354528    -0.53900
C680        C  0.52224091  0.23839393  0.19161720     0.10200
H681        H  0.55596873  0.23399354  0.02985452     0.14700
H682        H  0.58033883  0.28690302  0.21127085     0.00500
H683        H  0.63473415  0.16637828  0.16002914     0.15100
H684        H  0.73323897  0.18388145  0.15825389     0.14800
C685        C  0.59167201  0.38055166  0.08071683     0.86600
C686        C  0.63694378  0.36789229  0.04359437    -0.53600
C687        C  0.62647164  0.33545090  0.00616238     0.09600
C688        C  0.57319385  0.31601312  0.01504798     0.20500
C689        C  0.54131593  0.38434726  0.03506905    -0.54300
C690        C  0.53169537  0.34929529  0.50149407     0.09700
C691        C  0.58410905  0.34349840  0.11748893    -0.53900
C692        C  0.57493615  0.30895994  0.08413824     0.10200
H693        H  0.66976333  0.38752115  0.03905148     0.14700
H694        H  0.56451791  0.28739462  0.48694314     0.00500
H695        H  0.77251242  0.41256004  0.03240881     0.15100
H696        H  0.58684657  0.34489100  0.16578388     0.14800
C697        C  0.71892131  0.19247801  0.32392582     0.86600
C698        C  0.71200924  0.23004219  0.36299169    -0.53600
C699        C  0.70177157  0.26500972  0.33197473     0.09600
C700        C  0.69858010  0.25818961  0.26255102     0.20500
C701        C  0.66797165  0.19135711  0.27939837    -0.54300
C702        C  0.65752551  0.22548272  0.24648502     0.09700
C703        C  0.76308978  0.20250631  0.28552404    -0.53900
C704        C  0.75167870  0.23625273  0.25124483     0.10200
H705        H  0.71543003  0.22844729  0.41120416     0.14700
H706        H  0.69011386  0.28536895  0.23479281     0.00500
H707        H  0.64416975  0.16471842  0.27193405     0.15100
H708        H  0.54700264  0.18210035  0.27850248     0.14800
C709        C  0.67069808  0.37677030  0.36996885     0.86600
C710        C  0.62870439  0.36428359  0.40907350    -0.53600
C711        C  0.64438440  0.33198418  0.44464226     0.09600
C712        C  0.69901905  0.31265868  0.43244272     0.20500
C713        C  0.72239309  0.38097630  0.41272281    -0.54300
C714        C  0.73704781  0.34768389  0.44645324     0.09700
C715        C  0.68056448  0.33955227  0.33144062    -0.53900
C716        C  0.69464310  0.30523147  0.36295464     0.10200
H717        H  0.59407710  0.38373783  0.41588722     0.14700
H718        H  0.71072044  0.28593062  0.46039701     0.00500
H719        H  0.74352372  0.40897618  0.41854843     0.15100
H720        H  0.67486904  0.34069321  0.28317092     0.14800
O721        O  0.53860233  0.57933939  0.19774909    -0.71600
O722        O  0.57548882  0.49827574  0.31493488    -0.71800
O723        O  0.57346663  0.57951169  0.31525547    -0.71700
O724        O  0.53951038  0.49714838  0.19928766    -0.71700
O725        O  0.62299967  0.49205075  0.18243973    -0.71700
O726        O  0.65386464  0.58101511  0.28883826    -0.71700
O727        O  0.65860521  0.49934100  0.29676028    -0.71600
O728        O  0.61945013  0.57309794  0.17231201    -0.71800
V729        V  0.55818392  0.53869153  0.25621865     1.35200
V730        V  0.63714476  0.53660064  0.23557171     1.35200
C731        C  0.57320967  0.58980513  0.16506540     0.77600
C732        C  0.62336695  0.48429969  0.32399167     0.77700
C733        C  0.61886455  0.59493540  0.32077780     0.77500
C734        C  0.57621030  0.47860938  0.17462967     0.77500
O735        O  0.72839415  0.99442697  0.04159404    -0.71600
O736        O  0.67619103  0.09179111  0.46440606    -0.71800
O737        O  0.66134074  0.01146537  0.45128096    -0.71700
O738        O  0.73215105  0.07530863  0.05516835    -0.71700
O739        O  0.55617026  0.07530242  0.02099225    -0.71700
O740        O  0.49267543  0.99892348  0.42024326    -0.71700
O741        O  0.50114425  0.08060610  0.42155853    -0.71600
O742        O  0.55457660  0.99341409  0.00926329    -0.71800
V743        V  0.69560701  0.04515550  0.51168235     1.35200
V744        V  0.52202947  0.03820468  0.47563215     1.35200
C745        C  0.52221556  0.97792899  0.04018044     0.77600
C746        C  0.70637960  0.10171488  0.42641556     0.77700
C747        C  0.69046010  0.99091369  0.41905681     0.77500
C748        C  0.52454997  0.08931257  0.05667543     0.77500
C749        C  0.63747185  0.44887413  0.36099194    -0.16300
C750        C  0.65478246  0.41454296  0.33515840    -0.31500
H751        H  0.63161260  0.45015445  0.40794247     0.12700
H752        H  0.65708367  0.41374169  0.28726482     0.13300
C753        C  0.73015847  0.15368920  0.35825807    -0.16300
C754        C  0.69434925  0.13881955  0.39129598    -0.31500
H755        H  0.76836414  0.13744181  0.35566147     0.12700
H756        H  0.65636744  0.15525491  0.39445638     0.13300
C757        C  0.60313090  0.41905789  0.11623526    -0.16300
C758        C  0.56471085  0.44093347  0.14053760    -0.31500
H759        H  0.64347195  0.43025100  0.11963068     0.12700
H760        H  0.52410052  0.43026829  0.13683768     0.13300
C761        C  0.53954863  0.12300977  0.09740067    -0.16300
C762        C  0.54762008  0.15907207  0.07467783    -0.31500
H763        H  0.79069439  0.11884675  0.14644910     0.12700
H764        H  0.54596619  0.16184357  0.02649113     0.13300
C765        C  0.64316911  0.66457544  0.34220820    -0.16300
C766        C  0.62974727  0.62913473  0.36247545    -0.31500
H767        H  0.64683817  0.66693829  0.29483465     0.12700
H768        H  0.62199645  0.62648245  0.40855636     0.13300
C769        C  0.69901234  0.92248067  0.38108378    -0.16300
C770        C  0.66873429  0.95678445  0.38336975    -0.31500
H771        H  0.73864703  0.92095328  0.40661226     0.12700
H772        H  0.62725349  0.95907864  0.36388189     0.13300
C773        C  0.56193695  0.62251230  0.12186587    -0.16300
C774        C  0.56149125  0.66093257  0.14168118    -0.31500
H775        H  0.55977747  0.61559168  0.07437942     0.12700
H776        H  0.56602605  0.66650980  0.18972177     0.13300
C777        C  0.53728314  0.94019615  0.07238506    -0.16300
C778        C  0.50173742  0.92124963  0.10085814    -0.31500
H779        H  0.57776124  0.92729681  0.07189359     0.13700
H780        H  0.46140137  0.93448173  0.10124348     0.13300
C781        C  0.50692541  0.88144870  0.64383049     0.86600
C782        C  0.46226020  0.86654150  0.67735815    -0.53600
C783        C  0.47631564  0.83310962  0.71121163     0.09600
C784        C  0.53255972  0.81512710  0.70166638     0.20500
C785        C  0.55590634  0.88442808  0.69133053    -0.54300
C786        C  0.56970659  0.84968694  0.72197359     0.09700
C787        C  0.52028422  0.84618907  0.60290191    -0.53900
C788        C  0.53329503  0.81077808  0.63202858     0.10200
H789        H  0.67509971  0.88607626  0.69042966     0.14700
H790        H  0.54264368  0.78746815  0.72788896     0.00500
H791        H  0.57692992  0.91222226  0.70078758     0.15100
H792        H  0.51861963  0.84938060  0.55500968     0.14800
C793        C  0.57015099  0.70086356  0.59016950     0.86600
C794        C  0.55995914  0.73748173  0.62944926    -0.53600
C795        C  0.54543166  0.77208751  0.59915359     0.09600
C796        C  0.54223386  0.76583281  0.52942326     0.20500
C797        C  0.51860382  0.69718625  0.54679996    -0.54300
C798        C  0.49499432  0.72925692  0.02090134     0.09700
C799        C  0.61260088  0.71382967  0.55191773    -0.53900
C800        C  0.59723994  0.74650385  0.51697599     0.10200
H801        H  0.56462342  0.73547248  0.67758514     0.14700
H802        H  0.53270106  0.78653586  0.00326824     0.00500
H803        H  0.75661609  0.66922188  0.53513953     0.15100
H804        H  0.64787973  0.69482062  0.54557938     0.14800
C805        C  0.67512857  0.87752316  0.85245508     0.86600
C806        C  0.71886150  0.86480517  0.81328560    -0.53600
C807        C  0.70711213  0.83241939  0.77606005     0.09600
C808        C  0.65422209  0.81313423  0.78696431     0.20500
C809        C  0.62312547  0.88143720  0.80973666    -0.54300
C810        C  0.61212089  0.84815218  0.77439554     0.09700
C811        C  0.66916666  0.84019885  0.88939656    -0.53900
C812        C  0.65904915  0.80561988  0.85620372     0.10200
H813        H  0.50052143  0.88598984  0.80175341     0.14700
H814        H  0.64567896  0.78631488  0.75779847     0.00500
H815        H  0.59855811  0.90925892  0.80585037     0.15100
H816        H  0.67454203  0.84137430  0.93772909     0.14800
C817        C  0.65123804  0.69167140  0.88951158     0.86600
C818        C  0.65150926  0.72972070  0.85224882    -0.53600
C819        C  0.65692721  0.76492628  0.88511880     0.09600
C820        C  0.66224124  0.75765046  0.95433842     0.20500
C821        C  0.70303551  0.69196432  0.93289821    -0.54300
C822        C  0.70882779  0.72626676  0.96739177     0.09700
C823        C  0.60663485  0.70011119  0.92951116    -0.53900
C824        C  0.61321171  0.73365840  0.96554422     0.10200
H825        H  0.64775645  0.72824926  0.80393400     0.14700
H826        H  0.66679797  0.78487016  0.98355148     0.00500
H827        H  0.73090236  0.66598399  0.93878920     0.15100
H828        H  0.57669499  0.67823138  0.93520368     0.14800
C829        C  0.56206642  0.19725572  0.61993191     0.86600
C830        C  0.56485963  0.23420597  0.58219381    -0.53600
C831        C  0.57317908  0.26902142  0.61451395     0.09600
C832        C  0.57870553  0.26275027  0.68375503     0.20500
C833        C  0.61442316  0.19559272  0.66210184    -0.54300
C834        C  0.62294662  0.22960617  0.69661668     0.09700
C835        C  0.51802058  0.20822701  0.65967611    -0.53900
C836        C  0.52762021  0.24173810  0.69537747     0.10200
H837        H  0.56021580  0.23230233  0.53391943     0.14700
H838        H  0.58567525  0.28987898  0.71263565     0.00500
H839        H  0.64082524  0.16871738  0.66666004     0.15100
H840        H  0.73563268  0.18999954  0.66407641     0.14800
C841        C  0.59384514  0.37923503  0.57957466     0.86600
C842        C  0.63797027  0.36586878  0.54103938    -0.53600
C843        C  0.62617163  0.33280679  0.50497500     0.09600
C844        C  0.57307261  0.31438379  0.51566416     0.20500
C845        C  0.54243211  0.38320321  0.53575644    -0.54300
C846        C  0.53129949  0.35058375  0.00049692     0.09700
C847        C  0.58688930  0.34281038  0.61699960    -0.53900
C848        C  0.57682024  0.30831154  0.58470362     0.10200
H849        H  0.67038406  0.38523083  0.53470030     0.14700
H850        H  0.56586899  0.28926038  0.98550356     0.00500
H851        H  0.75585728  0.41004766  0.52908393     0.15100
H852        H  0.59124542  0.34461521  0.66529125     0.14800
C853        C  0.72779719  0.19855573  0.82650780     0.86600
C854        C  0.71843570  0.23568719  0.86570475    -0.53600
C855        C  0.70656174  0.27071887  0.83469004     0.09600
C856        C  0.70387380  0.26396434  0.76521375     0.20500
C857        C  0.67720807  0.19605135  0.78180700    -0.54300
C858        C  0.66456197  0.22994928  0.74918314     0.09700
C859        C  0.77153942  0.21043506  0.78907070    -0.53900
C860        C  0.75836142  0.24361431  0.75429891     0.10200
H861        H  0.72215245  0.23378230  0.91386120     0.14700
H862        H  0.69397953  0.29116493  0.73775751     0.00500
H863        H  0.65470535  0.16875731  0.77449270     0.15100
H864        H  0.55350787  0.18949616  0.78371528     0.14800
C865        C  0.67620488  0.38304138  0.87494425     0.86600
C866        C  0.63287438  0.37033847  0.91259372    -0.53600
C867        C  0.64666211  0.33681975  0.94665284     0.09600
C868        C  0.70143468  0.31733638  0.93535348     0.20500
C869        C  0.72692633  0.38574357  0.91970187    -0.54300
C870        C  0.74034786  0.35159216  0.95173454     0.09700
C871        C  0.68601834  0.34607788  0.83526461    -0.53900
C872        C  0.69853899  0.31096201  0.86589732     0.10200
H873        H  0.59841756  0.39010452  0.91947625     0.14700
H874        H  0.71185736  0.29012841  0.96258885     0.00500
H875        H  0.74920883  0.41313407  0.92694761     0.15100
H876        H  0.68190026  0.34801204  0.78705655     0.14800
O877        O  0.58977960  0.58034196  0.67156269    -0.71600
O878        O  0.63492421  0.49691188  0.78115774    -0.71800
O879        O  0.62916333  0.57959240  0.78566805    -0.71700
O880        O  0.59569795  0.49882472  0.66710847    -0.71700
O881        O  0.67645146  0.50018823  0.64148248    -0.71700
O882        O  0.70975660  0.58140642  0.76022201    -0.71700
O883        O  0.71586176  0.49836103  0.75658042    -0.71600
O884        O  0.67023004  0.58103354  0.64498379    -0.71800
V885        V  0.61407856  0.53895388  0.72606617     1.35200
V886        V  0.69170138  0.54022945  0.70174242     1.35200
C887        C  0.62239680  0.59507065  0.64025008     0.77600
C888        C  0.68219717  0.48162663  0.78461410     0.77700
C889        C  0.67393778  0.59618513  0.79029525     0.77500
C890        C  0.63065343  0.48535825  0.63506033     0.77500
O891        O  0.71270869  0.99854419  0.55935461    -0.71600
O892        O  0.68529280  0.08453907  0.94390500    -0.71800
O893        O  0.68143352  0.00225110  0.93182319    -0.71700
O894        O  0.72683766  0.07890744  0.57394694    -0.71700
O895        O  0.55343735  0.07700660  0.53038246    -0.71700
O896        O  0.50746279  0.00098497  0.89778921    -0.71700
O897        O  0.50962495  0.08251779  0.91024513    -0.71600
O898        O  0.54630033  0.99572457  0.52810590    -0.71800
V899        V  0.70829253  0.03921473  0.99225259     1.35200
V900        V  0.53044812  0.03803677  0.96019192     1.35200
C901        C  0.51305397  0.98012365  0.55759272     0.77600
C902        C  0.71810566  0.09993511  0.91337609     0.77700
C903        C  0.71305636  0.98643764  0.89759128     0.77500
C904        C  0.52723971  0.09029564  0.57166368     0.77500
C905        C  0.69727597  0.44364898  0.81725705    -0.16300
C906        C  0.66127680  0.42236368  0.84221360    -0.31500
H907        H  0.73847466  0.43193419  0.81859093     0.12700
H908        H  0.62024787  0.43443913  0.84109737     0.13300
C909        C  0.74155861  0.15930705  0.85904781    -0.16300
C910        C  0.70475265  0.13906079  0.88402361    -0.31500
H911        H  0.78190062  0.14602199  0.85899180     0.12700
H912        H  0.66432535  0.15210611  0.88430503     0.13300
C913        C  0.60496062  0.41666548  0.61698212    -0.16300
C914        C  0.61933775  0.45106903  0.59445822    -0.31500
H915        H  0.60188734  0.41545033  0.66466295     0.12700
H916        H  0.62652236  0.45278160  0.54804581     0.13300
C917        C  0.54607254  0.12396291  0.60981127    -0.16300
C918        C  0.55316525  0.15905223  0.58400078    -0.31500
H919        H  0.79041311  0.12465612  0.65586414     0.12700
H920        H  0.54989829  0.16043988  0.53552519     0.13300
C921        C  0.64397010  0.65237958  0.85409039    -0.16300
C922        C  0.68320607  0.63360597  0.82658761    -0.31500
H923        H  0.60549070  0.63833104  0.85245725     0.12700
H924        H  0.72203142  0.64710583  0.82827532     0.13300
C925        C  0.68683469  0.91620422  0.88770180    -0.16300
C926        C  0.69785033  0.95055301  0.86109350    -0.31500
H927        H  0.68752509  0.91589247  0.93598779     0.12700
H928        H  0.70085497  0.95076458  0.81346785     0.13300
C929        C  0.60565034  0.62937457  0.60167525    -0.16300
C930        C  0.58544842  0.66324094  0.62563561    -0.31500
H931        H  0.61384399  0.62822078  0.55545323     0.12700
H932        H  0.58150040  0.66413056  0.67318897     0.13300
C933        C  0.52765904  0.94178482  0.58815906    -0.16300
C934        C  0.49165166  0.92090129  0.61290582    -0.31500
H935        H  0.56856696  0.92956685  0.58845618     0.13700
H936        H  0.45074454  0.93316069  0.61244503     0.13300
C937        C  0.76676975  0.88315442  0.13602069     0.86600
C938        C  0.72295873  0.87199616  0.17376533    -0.53600
C939        C  0.73635108  0.83945564  0.20969077     0.09600
C940        C  0.79103275  0.81931943  0.20023277     0.20500
C941        C  0.81725337  0.88685531  0.18084902    -0.54300
C942        C  0.83002277  0.85364067  0.21503808     0.09700
C943        C  0.77648649  0.84537981  0.09846495    -0.53900
C944        C  0.78832526  0.81122475  0.13118277     0.10200
H945        H  0.93793298  0.89136140  0.17820052     0.14700
H946        H  0.80097777  0.79293476  0.22928883     0.00500
H947        H  0.83958747  0.91429138  0.18677674     0.15100
H948        H  0.77244906  0.84604949  0.05015105     0.14800
C949        C  0.81326256  0.69792170  0.09881327     0.86600
C950        C  0.80587357  0.73640739  0.13547620    -0.53600
C951        C  0.79441897  0.77033437  0.10232219     0.09600
C952        C  0.79001872  0.76145769  0.03341462     0.20500
C953        C  0.76153415  0.69498226  0.05595685    -0.54300
C954        C  0.75646835  0.73223512  0.51311236     0.09700
C955        C  0.85652305  0.70735032  0.05937334    -0.53900
C956        C  0.84349352  0.73970728  0.02291979     0.10200
H957        H  0.81063556  0.73617925  0.18377598     0.14700
H958        H  0.77707121  0.79615549  0.50514724     0.00500
H959        H  0.98472404  0.66963977  0.04532151     0.15100
H960        H  0.89008620  0.68644828  0.05373781     0.14800
C961        C  0.93500213  0.88597367  0.34341010     0.86600
C962        C  0.97774378  0.87397481  0.30301377    -0.53600
C963        C  0.96695051  0.84049149  0.26804926     0.09600
C964        C  0.91548634  0.82037759  0.28011283     0.20500
C965        C  0.88208972  0.88839963  0.30112823    -0.54300
C966        C  0.87220350  0.85419956  0.26726479     0.09700
C967        C  0.93135581  0.84895980  0.38129926    -0.53900
C968        C  0.92148719  0.81405121  0.34911011     0.10200
H969        H  0.75870173  0.89371878  0.29805531     0.14700
H970        H  0.90768930  0.79316124  0.25160594     0.00500
H971        H  0.85623400  0.91532792  0.29488470     0.15100
H972        H  0.93704040  0.85094334  0.42958102     0.14800
C973        C  0.89556649  0.70414307  0.38488240     0.86600
C974        C  0.90529511  0.73971787  0.34653622    -0.53600
C975        C  0.91717900  0.77442365  0.37861609     0.09600
C976        C  0.92035246  0.76883133  0.44775076     0.20500
C977        C  0.94627360  0.69882245  0.42942095    -0.54300
C978        C  0.95961059  0.73249530  0.46269629     0.09700
C979        C  0.85200151  0.72008583  0.42244284    -0.53900
C980        C  0.86552928  0.75298735  0.45817988     0.10200
H981        H  0.90062968  0.73741177  0.29827177     0.14700
H982        H  0.93046986  0.79576690  0.47596833     0.00500
H983        H  0.96878155  0.67019450  0.43523327     0.15100
H984        H  0.81822987  0.70200914  0.42868437     0.14800
C985        C  0.81001688  0.19551848  0.11593080     0.86600
C986        C  0.81382345  0.23362949  0.08050643    -0.53600
C987        C  0.82073287  0.26802694  0.11436941     0.09600
C988        C  0.82356345  0.26002869  0.18316880     0.20500
C989        C  0.86099142  0.19341627  0.16054138    -0.54300
C990        C  0.86781127  0.22693821  0.19667553     0.09700
C991        C  0.76441802  0.20503664  0.15420223    -0.53900
C992        C  0.77254762  0.23762935  0.19212050     0.10200
H993        H  0.81148577  0.23263442  0.03229609     0.14700
H994        H  0.82902452  0.28695608  0.21290994     0.00500
H995        H  0.88733801  0.16654889  0.16568418     0.15100
H996        H  0.97951357  0.18675237  0.16570791     0.14800
C997        C  0.84677987  0.37903640  0.08217823     0.86600
C998        C  0.89066597  0.36486429  0.04403559    -0.53600
C999        C  0.87803955  0.33271627  0.00684900     0.09600
C1000       C  0.82394508  0.31506310  0.01683978     0.20500
C1001       C  0.79582621  0.38422873  0.03757906    -0.54300
C1002       C  0.77757115  0.34958300  0.50013196     0.09700
C1003       C  0.83806803  0.34243222  0.11926989    -0.53900
C1004       C  0.82669667  0.30815033  0.08602852     0.10200
H1005       H  0.92418773  0.38353701  0.03862015     0.14700
H1006       H  0.81871565  0.29012621  0.48633032     0.00500
H1007       H  0.01780994  0.41273982  0.03087531     0.15100
H1008       H  0.84235749  0.34375820  0.16762865     0.14800
C1009       C  0.96903300  0.19597060  0.33012307     0.86600
C1010       C  0.95979646  0.23364841  0.36837040    -0.53600
C1011       C  0.94851041  0.26821617  0.33647164     0.09600
C1012       C  0.94677327  0.26079181  0.26723210     0.20500
C1013       C  0.91877876  0.19336211  0.28471759    -0.54300
C1014       C  0.90733751  0.22703996  0.25107334     0.09700
C1015       C  0.01339188  0.20692195  0.29254586    -0.53900
C1016       C  0.00104406  0.24003335  0.25725334     0.10200
H1017       H  0.96288600  0.23254875  0.41662556     0.14700
H1018       H  0.93759171  0.28757822  0.23880352     0.00500
H1019       H  0.89621333  0.16610356  0.27727054     0.15100
H1020       H  0.79604377  0.18125672  0.27872598     0.14800
C1021       C  0.92374283  0.38162247  0.37097062     0.86600
C1022       C  0.88164827  0.37321932  0.41235521    -0.53600
C1023       C  0.89449185  0.34056340  0.44820905     0.09600
C1024       C  0.94680160  0.31758477  0.43550288     0.20500
C1025       C  0.97665316  0.38344785  0.41192827    -0.54300
C1026       C  0.98847708  0.35038818  0.44686288     0.09700
C1027       C  0.92870422  0.34300444  0.33373891    -0.53900
C1028       C  0.94083357  0.30885950  0.36631252     0.10200
H1029       H  0.84862178  0.39451023  0.41879066     0.14700
H1030       H  0.95650909  0.29106447  0.46446321     0.00500
H1031       H  0.00089817  0.40995967  0.41562597     0.15100
H1032       H  0.92291400  0.34341828  0.28543602     0.14800
O1033       O  0.81333216  0.58085219  0.18540636    -0.71600
O1034       O  0.84990522  0.50920141  0.31385004    -0.71800
O1035       O  0.85421721  0.58989397  0.29757092    -0.71700
O1036       O  0.80860494  0.49987633  0.20064452    -0.71700
O1037       O  0.88895241  0.49119956  0.17461426    -0.71700
O1038       O  0.93454079  0.58122469  0.27159769    -0.71700
O1039       O  0.93000417  0.50003429  0.28699588    -0.71600
O1040       O  0.89338542  0.57174252  0.15839961    -0.71800
V1041       V  0.83307683  0.54473474  0.24881798     1.35200
V1042       V  0.91023122  0.53624997  0.22353757     1.35200
C1043       C  0.84800020  0.59005357  0.15232056     0.77600
C1044       C  0.89518241  0.49074816  0.31986458     0.77700
C1045       C  0.90126816  0.60217117  0.29837167     0.77500
C1046       C  0.84168207  0.47918383  0.17324430     0.77500
O1047       O  0.97659436  0.99475253  0.04213685    -0.71600
O1048       O  0.92913622  0.09195789  0.46693890    -0.71800
O1049       O  0.91494633  0.01155391  0.45243858    -0.71700
O1050       O  0.97796510  0.07580198  0.05714729    -0.71700
O1051       O  0.80991213  0.07455289  0.02161606    -0.71700
O1052       O  0.73956978  0.99853973  0.42122464    -0.71700
O1053       O  0.74801236  0.07984998  0.42074707    -0.71600
O1054       O  0.80698887  0.99261435  0.01010052    -0.71800
V1055       V  0.94982896  0.04501671  0.51296085     1.35200
V1056       V  0.76841025  0.03815962  0.47604028     1.35200
C1057       C  0.77420800  0.97726712  0.04060412     0.77600
C1058       C  0.95881658  0.10287337  0.42909649     0.77700
C1059       C  0.94349895  0.99169978  0.41876528     0.77500
C1060       C  0.77876863  0.08848587  0.05792509     0.77500
C1061       C  0.90508645  0.45599206  0.35914876    -0.16300
C1062       C  0.91200586  0.41913275  0.33439416    -0.31500
H1063       H  0.90376961  0.45987621  0.40690868     0.12700
H1064       H  0.91014101  0.41619645  0.28602520     0.13300
C1065       C  0.98174411  0.15732403  0.36456845    -0.16300
C1066       C  0.94595996  0.14067554  0.39577515    -0.31500
H1067       H  0.02080232  0.14220481  0.36267568     0.12700
H1068       H  0.90713551  0.15595782  0.39848029     0.13300
C1069       C  0.86164422  0.41717207  0.11704801    -0.16300
C1070       C  0.82585404  0.44106824  0.14245630    -0.31500
H1071       H  0.90266923  0.42671822  0.11842001     0.12700
H1072       H  0.78456750  0.43222686  0.14121730     0.13300
C1073       C  0.79418714  0.12186598  0.09923058    -0.16300
C1074       C  0.80274864  0.15800285  0.07708876    -0.31500
H1075       H  0.03557435  0.12038850  0.15013448     0.12700
H1076       H  0.80221273  0.16080163  0.02903960     0.13300
C1077       C  0.88044746  0.66548875  0.35146717    -0.16300
C1078       C  0.91650953  0.64097014  0.32735749    -0.31500
H1079       H  0.83944433  0.65602765  0.35061250     0.12700
H1080       H  0.95774346  0.64985965  0.32820007     0.13300
C1081       C  0.95104099  0.92327169  0.37970804    -0.16300
C1082       C  0.92135245  0.95788637  0.38225911    -0.31500
H1083       H  0.99069061  0.92143765  0.40518432     0.12700
H1084       H  0.87993073  0.96053488  0.36259901     0.13300
C1085       C  0.83742096  0.62438161  0.11235087    -0.16300
C1086       C  0.82545384  0.66076862  0.13597246    -0.31500
H1087       H  0.84264683  0.62078561  0.06538918     0.12700
H1088       H  0.82407042  0.66364552  0.18394269     0.13300
C1089       C  0.78842791  0.93935993  0.07238263    -0.16300
C1090       C  0.75254937  0.92112130  0.10124390    -0.31500
H1091       H  0.82857742  0.92588593  0.07160902     0.13700
H1092       H  0.71254763  0.93490196  0.10199422     0.13300
C1093       C  0.75307640  0.88246157  0.64677959     0.86600
C1094       C  0.71026136  0.86732769  0.68279725    -0.53600
C1095       C  0.72581721  0.83365124  0.71580258     0.09600
C1096       C  0.78176798  0.81620776  0.70400252     0.20500
C1097       C  0.80343267  0.88582786  0.69201859    -0.54300
C1098       C  0.81880659  0.85130862  0.72235058     0.09700
C1099       C  0.76521743  0.84712862  0.60542660    -0.53900
C1100       C  0.77990970  0.81176285  0.63426216     0.10200
H1101       H  0.92782486  0.88594513  0.68558709     0.14700
H1102       H  0.79340082  0.78849812  0.72970839     0.00500
H1103       H  0.82441152  0.91375554  0.70019306     0.15100
H1104       H  0.76187605  0.85047561  0.55746620     0.14800
C1105       C  0.82510829  0.70403250  0.58880892     0.86600
C1106       C  0.81026260  0.73860310  0.63000070    -0.53600
C1107       C  0.79286359  0.77341052  0.60086344     0.09600
C1108       C  0.79082073  0.76887173  0.53097850     0.20500
C1109       C  0.77489446  0.69820701  0.54356711    -0.54300
C1110       C  0.74957297  0.72787191  0.02072144     0.09700
C1111       C  0.86615834  0.72143104  0.55300584    -0.53900
C1112       C  0.84772905  0.75371048  0.51886469     0.10200
H1113       H  0.81506550  0.73550338  0.67804273     0.14700
H1114       H  0.78036106  0.78778703  0.00408896     0.00500
H1115       H  0.99754301  0.66885163  0.53641435     0.15100
H1116       H  0.90264385  0.70424454  0.54588109     0.14800
C1117       C  0.92735783  0.87983246  0.84944843     0.86600
C1118       C  0.97038371  0.86662691  0.80967933    -0.53600
C1119       C  0.95786175  0.83397193  0.77316568     0.09600
C1120       C  0.90484662  0.81535700  0.78470899     0.20500
C1121       C  0.87501786  0.88402205  0.80733673    -0.54300
C1122       C  0.86310840  0.85052773  0.77264546     0.09700
C1123       C  0.92120481  0.84280560  0.88666012    -0.53900
C1124       C  0.91018484  0.80831565  0.85378506     0.10200
H1125       H  0.75179070  0.88412618  0.80805395     0.14700
H1126       H  0.89560729  0.78855227  0.75576653     0.00500
H1127       H  0.85048293  0.91186482  0.80402747     0.15100
H1128       H  0.92699345  0.84419040  0.93497845     0.14800
C1129       C  0.89899180  0.69535376  0.88789783     0.86600
C1130       C  0.89995695  0.73302717  0.85031201    -0.53600
C1131       C  0.90732870  0.76812454  0.88283514     0.09600
C1132       C  0.91317270  0.76140082  0.95191742     0.20500
C1133       C  0.95156279  0.69507088  0.93060508    -0.54300
C1134       C  0.95857919  0.72927470  0.96498135     0.09700
C1135       C  0.85536155  0.70503938  0.92841940    -0.53900
C1136       C  0.86343088  0.73883111  0.96369857     0.10200
H1137       H  0.89518504  0.73135259  0.80197739     0.14700
H1138       H  0.91886874  0.78865240  0.98084686     0.00500
H1139       H  0.97858952  0.66890405  0.93822834     0.15100
H1140       H  0.82531443  0.68354317  0.93529560     0.14800
C1141       C  0.81138948  0.19862937  0.61826473     0.86600
C1142       C  0.81518078  0.23579380  0.58093846    -0.53600
C1143       C  0.82405891  0.27041258  0.61369978     0.09600
C1144       C  0.82968657  0.26354280  0.68299460     0.20500
C1145       C  0.86373453  0.19602471  0.66049202    -0.54300
C1146       C  0.87321131  0.22973035  0.69542661     0.09700
C1147       C  0.76757533  0.21007090  0.65817614    -0.53900
C1148       C  0.77802464  0.24309500  0.69453708     0.10200
H1149       H  0.80961852  0.23443252  0.53261237     0.14700
H1150       H  0.83749356  0.29042520  0.71218390     0.00500
H1151       H  0.88952309  0.16881507  0.66462213     0.15100
H1152       H  0.98829265  0.18952634  0.66365234     0.14800
C1153       C  0.83323661  0.38289462  0.58081230     0.86600
C1154       C  0.87990777  0.37371394  0.54373554    -0.53600
C1155       C  0.87345043  0.34020208  0.50707475     0.09600
C1156       C  0.82283514  0.31740192  0.51546709     0.20500
C1157       C  0.78300423  0.38367624  0.53521196    -0.54300
C1158       C  0.78359730  0.35074488  0.00309322     0.09700
C1159       C  0.83013036  0.34519973  0.61720072    -0.53900
C1160       C  0.82550084  0.31040030  0.58433668     0.10200
H1161       H  0.91047338  0.39536073  0.53945075     0.14700
H1162       H  0.81465771  0.28854612  0.98740080     0.00500
H1163       H  0.01673634  0.41316532  0.52435626     0.15100
H1164       H  0.83201821  0.34657106  0.66536785     0.14800
C1165       C  0.97830598  0.19760191  0.82502892     0.86600
C1166       C  0.96891360  0.23443843  0.86457063    -0.53600
C1167       C  0.95718197  0.26953301  0.83392815     0.09600
C1168       C  0.95461385  0.26327188  0.76448691     0.20500
C1169       C  0.92781885  0.19526668  0.78003413    -0.54300
C1170       C  0.91526530  0.22937452  0.74777739     0.09700
C1171       C  0.02224896  0.20967547  0.78800891    -0.53900
C1172       C  0.00914368  0.24313732  0.75372602     0.10200
H1173       H  0.97237152  0.23226858  0.91269685     0.14700
H1174       H  0.94489735  0.29060014  0.73730139     0.00500
H1175       H  0.90522384  0.16802815  0.77251753     0.15100
H1176       H  0.80556327  0.19014484  0.78243423     0.14800
C1177       C  0.92425996  0.38073021  0.87472753     0.86600
C1178       C  0.88188877  0.36696046  0.91279100    -0.53600
C1179       C  0.89708885  0.33372935  0.94678895     0.09600
C1180       C  0.95238129  0.31551858  0.93496075     0.20500
C1181       C  0.97524919  0.38450160  0.91877377    -0.54300
C1182       C  0.99005350  0.35057268  0.95103115     0.09700
C1183       C  0.93497842  0.34427716  0.83487143    -0.53900
C1184       C  0.94901021  0.30940230  0.86541776     0.10200
H1185       H  0.84701303  0.38609671  0.92018215     0.14700
H1186       H  0.96401892  0.28841592  0.96205069     0.00500
H1187       H  0.99625964  0.41248795  0.92574773     0.15100
H1188       H  0.92995400  0.34630654  0.78667339     0.14800
O1189       O  0.81083043  0.57861024  0.69261586    -0.71600
O1190       O  0.87478061  0.49510372  0.79205362    -0.71800
O1191       O  0.86212725  0.57708194  0.80168309    -0.71700
O1192       O  0.82491202  0.49732501  0.68197344    -0.71700
O1193       O  0.89544945  0.51128283  0.64008036    -0.71700
O1194       O  0.94230875  0.57666727  0.77429605    -0.71700
O1195       O  0.94723768  0.49625919  0.74835488    -0.71600
O1196       O  0.88930913  0.59111417  0.66745647    -0.71800
V1197       V  0.84449785  0.53707921  0.74157733     1.35200
V1198       V  0.91734258  0.54368938  0.70812130     1.35200
C1199       C  0.83996180  0.60113512  0.66717676     0.77600
C1200       C  0.92006514  0.47924698  0.78378741     0.77700
C1201       C  0.90858093  0.59112845  0.80704024     0.77500
C1202       C  0.85441184  0.49075358  0.64072600     0.77500
O1203       O  0.96805468  0.99812325  0.55970213    -0.71600
O1204       O  0.93459870  0.08525588  0.94460236    -0.71800
O1205       O  0.93276861  0.00311726  0.93105411    -0.71700
O1206       O  0.98170817  0.07863206  0.57519617    -0.71700
O1207       O  0.79954095  0.07753340  0.53005592    -0.71700
O1208       O  0.75957483  0.99991649  0.89908809    -0.71700
O1209       O  0.76324557  0.08195702  0.91090825    -0.71600
O1210       O  0.79199718  0.99607400  0.52951843    -0.71800
V1211       V  0.95697216  0.03981133  0.99300148     1.35200
V1212       V  0.78342530  0.03728129  0.96096013     1.35200
C1213       C  0.75848032  0.98093174  0.55918041     0.77600
C1214       C  0.96803540  0.10080478  0.91503088     0.77700
C1215       C  0.96586823  0.98793177  0.89803033     0.77500
C1216       C  0.77279574  0.09187090  0.57021404     0.77500
C1217       C  0.93943555  0.44086844  0.81289343    -0.16300
C1218       C  0.90683242  0.41961414  0.84262785    -0.31500
H1219       H  0.98004720  0.42941049  0.80879313     0.12700
H1220       H  0.86623364  0.43151268  0.84586829     0.13300
C1221       C  0.99165715  0.15850888  0.85773517    -0.16300
C1222       C  0.95490532  0.13943567  0.88446795    -0.31500
H1223       H  0.03165563  0.14470011  0.85714849     0.12700
H1224       H  0.91478985  0.15302103  0.88500996     0.13300
C1225       C  0.83781444  0.42048496  0.61946488    -0.16300
C1226       C  0.84467590  0.45710336  0.59816574    -0.31500
H1227       H  0.83662655  0.41747686  0.66726204     0.12700
H1228       H  0.85003710  0.46076408  0.55152156     0.13300
C1229       C  0.79197963  0.12575229  0.60799090    -0.16300
C1230       C  0.80122364  0.16048755  0.58219341    -0.31500
H1231       H  0.04526123  0.12489304  0.65639054     0.12700
H1232       H  0.79868723  0.16172903  0.53375105     0.13300
C1233       C  0.88744117  0.65705880  0.85131228    -0.16300
C1234       C  0.92261471  0.62552769  0.84702501    -0.31500
H1235       H  0.84788883  0.65585617  0.82588998     0.12700
H1236       H  0.96411801  0.62682077  0.86604813     0.13300
C1237       C  0.93979688  0.91806962  0.88533557    -0.16300
C1238       C  0.95195824  0.95249897  0.86000394    -0.31500
H1239       H  0.93965197  0.91741598  0.93352139     0.12700
H1240       H  0.95591881  0.95330960  0.81262399     0.13300
C1241       C  0.81673541  0.63900818  0.64055782    -0.16300
C1242       C  0.84759395  0.66581887  0.61914541    -0.31500
H1243       H  0.77382599  0.64536638  0.63963880     0.12700
H1244       H  0.89041942  0.65875662  0.62041369     0.13300
C1245       C  0.77253976  0.94246756  0.58972811    -0.16300
C1246       C  0.73696849  0.92193368  0.61591491    -0.31500
H1247       H  0.81309485  0.92977924  0.58883913     0.13700
H1248       H  0.69637358  0.93449178  0.61695083     0.13300
loop_ 
_geom_bond_atom_site_label_1 
_geom_bond_atom_site_label_2 
_geom_bond_distance 
_geom_bond_site_symmetry_2 
_ccdc_geom_bond_type 
C1            C2   1.528   1_455  S
C1            C7   1.522       .  S
C1            C5   1.531       .  S
C1          C154   1.504       .  S
C2            C3   1.368       .  D
C2          H945   1.087       .  S
C3            C4   1.535   1_655  S
C3          C963   1.475       .  S
C4            C8   1.563       .  S
C4            C6   1.537       .  S
C4           H10   1.107       .  S
C5            C6   1.362       .  D
C5           H11   1.086       .  S
C6           C30   1.484       .  S
C7            C8   1.370       .  D
C7           H12   1.082       .  S
C8           C15   1.499       .  S
H9          C314   1.087       .  S
C13          C14   1.526       .  S
C13          C19   1.531       .  S
C13          C17   1.536       .  S
C13         C150   1.520       .  S
C14          C15   1.371       .  D
C14          H21   1.083       .  S
C15          C16   1.561       .  S
C16          C20   1.529       .  S
C16         C174   1.533   1_455  S
C16         H178   1.106       .  S
C17         C174   1.364   1_455  D
C17         H959   1.083   1_455  S
C18         C172   1.535       .  S
C18         C173   1.367       .  D
C18         C978   1.490   1_455  S
C19          C20   1.371       .  D
C19          H24   1.086       .  S
C20         C200   1.476   1_554  S
H22         C172   1.106       .  S
H23         C329   1.086       .  S
C25          C26   1.525       .  S
C25          C31   1.525       .  S
C25          C29   1.542       .  S
C25         C145   1.508       .  S
C26          C27   1.364       .  D
C26         H345   1.087       .  S
C27          C28   1.533       .  S
C27         C315   1.476       .  S
C28          C32   1.565       .  S
C28          C30   1.530       .  S
C28          H34   1.105       .  S
C29          C30   1.366       .  D
C29          H35   1.082       .  S
C31          C32   1.367       .  D
C31          H36   1.083       .  S
C32          C39   1.497       .  S
H33         C962   1.087   1_455  S
C37          C38   1.517       .  S
C37          C43   1.532       .  S
C37          C41   1.533       .  S
C37         C141   1.508       .  S
C38          C39   1.363       .  D
C38          H45   1.081       .  S
C39          C40   1.565       .  S
C40          C44   1.542       .  S
C40          C42   1.539       .  S
C40          H46   1.107       .  S
C41          C42   1.367       .  D
C41          H47   1.086       .  S
C42         C330   1.490       .  S
C43          C44   1.374       .  D
C43          H48   1.086       .  S
C44         C176   1.488       .  S
C49          C50   1.522       .  S
C49          C55   1.531       .  S
C49          C53   1.529       .  S
C49         C138   1.509       .  S
C50          C51   1.365       .  D
C50          H57   1.081       .  S
C51          C52   1.571       .  S
C51          C68   1.508       .  S
C52          C56   1.544       .  S
C52          C54   1.537       .  S
C52          H58   1.108       .  S
C53          C54   1.365       .  D
C53          H59   1.086       .  S
C54          C78   1.480       .  S
C55          C56   1.371       .  D
C55         H996   1.085   1_455  S
C56        C1016   1.492       .  S
H60         C367   1.086       .  S
C61          C62   1.534       .  S
C61          C67   1.529       .  S
C61          C65   1.535       .  S
C61         C133   1.518       .  S
C62          C63   1.372       .  D
C62          H69   1.087       .  S
C63          C64   1.542       .  S
C63         C243   1.492   1_554  S
C64          C68   1.572       .  S
C64         C222   1.536       .  S
C64         H226   1.105   1_554  S
C65         C222   1.364       .  D
C65        H1007   1.086       .  S
C66         C220   1.535       .  S
C66         C221   1.363       .  D
C66        C1026   1.484   1_455  S
C67          C68   1.370       .  D
C67          H72   1.083       .  S
H70         C220   1.106       .  S
H71         C377   1.086       .  S
C73          C74   1.524       .  S
C73          C79   1.534       .  S
C73          C77   1.531       .  S
C73         C129   1.508       .  S
C74          C75   1.366       .  D
C74          H81   1.083       .  S
C75          C76   1.565       .  S
C75          C92   1.497       .  S
C76          C80   1.534       .  S
C76          C78   1.533       .  S
C76          H82   1.106       .  S
C77          C78   1.364       .  D
C77          H83   1.086       .  S
C79          C80   1.371       .  D
C79         H396   1.086       .  S
C80         C368   1.483       .  S
H84        C1015   1.086       .  S
C85          C86   1.529       .  S
C85          C91   1.518       .  S
C85          C89   1.528       .  S
C85         C126   1.499       .  S
C86          C87   1.368       .  D
C86          H93   1.085       .  S
C87          C88   1.541       .  S
C87         C219   1.483       .  S
C88          C92   1.568       .  S
C88          C90   1.539       .  S
C88          H94   1.107       .  S
C89          C90   1.363       .  D
C89          H95   1.086       .  S
C90         C378   1.484       .  S
C91          C92   1.366       .  D
C91          H96   1.082       .  S
O97         V105   1.901       .  S
O97         C107   1.264       .  A
O98         V105   1.893       .  S
O98         C108   1.261       .  A
O99         V105   1.896       .  S
O99         C109   1.261       .  A
O100        V105   1.899       .  S
O100        C110   1.263       .  A
O101        V106   1.906       .  S
O101        C110   1.267       .  A
O102        V106   1.900       .  S
O102        C109   1.265       .  A
O103        V106   1.888       .  S
O103        C108   1.261       .  A
O104        V106   1.895       .  S
O104        C107   1.263       .  A
V105        V106   2.090       .  T
C107        C149   1.471       .  S
C108        C125   1.453       .  S
C109        C142   1.465       .  S
C110        C134   1.478       .  S
O111        V275   1.895   1_564  S
O111        C433   1.265       .  A
O112        V119   1.906       .  S
O112        C122   1.266       .  A
O113        V119   1.892       .  S
O113        C123   1.260   1_545  A
O114        V275   1.894   1_554  S
O114        C436   1.261       .  A
O115        V276   1.902   1_554  S
O115        C124   1.265       .  A
O116        V120   1.895   1_665  S
O116       C1059   1.265       .  A
O117        V120   1.898       .  S
O117       C1058   1.265   1_455  A
O118        V276   1.896   1_564  S
O118        C121   1.262       .  A
V119        O267   1.909   1_545  S
V119        O270   1.896       .  S
V119        V432   2.084       .  T
V120        O271   1.897       .  S
V120        O274   1.898   1_545  S
V120       V1055   2.085   1_455  T
C121       O1047   1.264   1_455  A
C121        C153   1.468       .  S
C122        O429   1.263       .  A
C122        C130   1.472       .  S
C123        O428   1.265       .  A
C123        C146   1.461       .  S
C124       O1050   1.261   1_455  A
C124        C137   1.465       .  S
C125        C126   1.342       .  D
C125        H127   1.086       .  S
C126        H128   1.088       .  S
C129        C130   1.346       .  D
C129        H131   1.087       .  S
C130        H132   1.087       .  S
C133        C134   1.347       .  D
C133        H135   1.087       .  S
C134        H136   1.087       .  S
C137        C138   1.343       .  D
C137       H1075   1.086       .  S
C138        H140   1.088       .  S
H139        C449   1.086       .  S
C141        C142   1.341       .  D
C141        H143   1.088       .  S
C142        H144   1.086       .  S
C145        C146   1.344       .  D
C145        H147   1.089       .  S
C146        H148   1.081       .  S
C149        C150   1.351       .  D
C149        H151   1.083   1_455  S
C150        H152   1.088       .  S
C153        C154   1.342       .  D
C153        H155   1.087       .  S
C154        H156   1.087   1_455  S
C157        C158   1.530   1_455  S
C157        C163   1.525       .  S
C157        C161   1.533       .  S
C157        C310   1.515   1_455  S
C158        C159   1.370       .  D
C158       H1101   1.087       .  S
C159        C160   1.546   1_655  S
C159       C1119   1.489       .  S
C160        C164   1.572       .  S
C160        C162   1.539       .  S
C160        H166   1.107       .  S
C161        C162   1.365       .  D
C161        H167   1.086       .  S
C162        C186   1.491       .  S
C163        C164   1.370       .  D
C163        H168   1.082       .  S
C164        C171   1.511       .  S
H165        C470   1.086       .  S
C169        C170   1.528       .  S
C169        C175   1.529       .  S
C169        C173   1.534       .  S
C169        C306   1.514       .  S
C170        C171   1.372       .  D
C170        H177   1.083       .  S
C171        C172   1.572       .  S
C172        C176   1.542       .  S
C173       H1115   1.085   1_455  S
C174       C1134   1.486   1_554  S
C175        C176   1.366       .  D
C175        H180   1.087       .  S
H179        C485   1.086       .  S
C181        C182   1.529       .  S
C181        C187   1.525       .  S
C181        C185   1.530       .  S
C181        C301   1.513       .  S
C182        C183   1.370       .  D
C182        H501   1.085       .  S
C183        C184   1.539       .  S
C183        C471   1.486       .  S
C184        C188   1.568       .  S
C184        C186   1.539       .  S
C184        H190   1.107       .  S
C185        C186   1.367       .  D
C185        H191   1.086       .  S
C187        C188   1.369       .  D
C187        H192   1.082       .  S
C188        C195   1.504       .  S
H189       C1118   1.085   1_455  S
C193        C194   1.525       .  S
C193        C199   1.525       .  S
C193        C197   1.532       .  S
C193        C297   1.501       .  S
C194        C195   1.371       .  D
C194        H201   1.083       .  S
C195        C196   1.568       .  S
C196        C200   1.535       .  S
C196        C198   1.534       .  S
C196        H202   1.107       .  S
C197        C198   1.365       .  D
C197        H203   1.086       .  S
C198        C486   1.482   1_556  S
C199        C200   1.362       .  D
C199        H204   1.086       .  S
C205        C206   1.518       .  S
C205        C211   1.530       .  S
C205        C209   1.529       .  S
C205        C294   1.507       .  S
C206        C207   1.366       .  D
C206        H213   1.081       .  S
C207        C208   1.571       .  S
C207        C224   1.502       .  S
C208        C212   1.542       .  S
C208        C210   1.540       .  S
C208        H214   1.108       .  S
C209        C210   1.368       .  D
C209        H215   1.086       .  S
C210        C234   1.490       .  S
C211        C212   1.368       .  D
C211       H1152   1.086   1_455  S
C212       C1172   1.486       .  S
H216        C523   1.085       .  S
C217        C218   1.530       .  S
C217        C223   1.526       .  S
C217        C221   1.531       .  S
C217        C289   1.505       .  S
C218        C219   1.366       .  D
C218        H225   1.086       .  S
C219        C220   1.538       .  S
C220        C224   1.570       .  S
C221       H1163   1.086       .  S
C222       C1182   1.492   1_454  S
C223        C224   1.370       .  D
C223        H228   1.083       .  S
H227        C533   1.086       .  S
C229        C230   1.524       .  S
C229        C235   1.536       .  S
C229        C233   1.531       .  S
C229        C285   1.518       .  S
C230        C231   1.369       .  D
C230        H237   1.082       .  S
C231        C232   1.575       .  S
C231        C248   1.511       .  S
C232        C236   1.545       .  S
C232        C234   1.540       .  S
C232        H238   1.107       .  S
C233        C234   1.364       .  D
C233        H239   1.086       .  S
C235        C236   1.374       .  D
C235        H552   1.086       .  S
C236        C524   1.496       .  S
H240       C1171   1.087       .  S
C241        C242   1.528       .  S
C241        C247   1.526       .  S
C241        C245   1.532       .  S
C241        C282   1.509       .  S
C242        C243   1.366       .  D
C242        H249   1.086       .  S
C243        C244   1.543       .  S
C244        C248   1.575       .  S
C244        C246   1.539       .  S
C244        H250   1.107       .  S
C245        C246   1.365       .  D
C245        H251   1.086       .  S
C246        C534   1.488   1_556  S
C247        C248   1.370       .  D
C247        H252   1.083       .  S
O253        V261   1.900       .  S
O253        C263   1.262       .  A
O254        V261   1.893       .  S
O254        C264   1.265       .  A
O255        V261   1.887       .  S
O255        C265   1.265       .  A
O256        V261   1.896       .  S
O256        C266   1.261       .  A
O257        V262   1.892       .  S
O257        C266   1.265       .  A
O258        V262   1.896       .  S
O258        C265   1.261       .  A
O259        V262   1.902       .  S
O259        C264   1.263       .  A
O260        V262   1.899       .  S
O260        C263   1.267       .  A
V261        V262   2.089       .  T
C263        C305   1.477       .  S
C264        C281   1.475       .  S
C265        C298   1.468       .  S
C266        C290   1.470       .  S
O267        C589   1.268       .  A
O268        V275   1.908       .  S
O268        C278   1.267       .  A
O269        V275   1.895       .  S
O269        C279   1.263   1_545  A
O270        C592   1.262       .  A
O271        C280   1.263       .  A
O272        V276   1.905       .  S
O272       C1215   1.265   1_445  A
O273        V276   1.891       .  S
O273       C1214   1.263   1_455  A
O274        C277   1.263       .  A
V275        V588   2.089       .  T
V276       V1211   2.090   1_455  T
C277       O1203   1.267   1_455  A
C277        C309   1.477       .  S
C278        O585   1.264       .  A
C278        C286   1.480       .  S
C279        O584   1.264   1_565  A
C279        C302   1.469       .  S
C280       O1206   1.262   1_455  A
C280        C293   1.462       .  S
C281        C282   1.344       .  D
C281        H283   1.086       .  S
C282        H284   1.088       .  S
C285        C286   1.350       .  D
C285        H287   1.087       .  S
C286        H288   1.087       .  S
C289        C290   1.343       .  D
C289        H291   1.088       .  S
C290        H292   1.086       .  S
C293        C294   1.344       .  D
C293       H1231   1.087       .  S
C294        H296   1.088       .  S
H295        C605   1.086       .  S
C297        C298   1.341       .  D
C297        H299   1.088       .  S
C298        H300   1.086       .  S
C301        C302   1.350       .  D
C301        H303   1.088       .  S
C302        H304   1.086       .  S
C305        C306   1.345       .  D
C305        H307   1.086       .  S
C306        H308   1.088       .  S
C309        C310   1.345   1_455  D
C309        H311   1.087       .  S
C310        H312   1.087       .  S
C313        C314   1.529       .  S
C313        C319   1.523       .  S
C313        C317   1.534       .  S
C313        C466   1.507       .  S
C314        C315   1.368       .  D
C315        C316   1.534       .  S
C316        C320   1.565       .  S
C316        C318   1.536       .  S
C316        H322   1.106       .  S
C317        C318   1.365       .  D
C317        H323   1.086       .  S
C318        C342   1.488       .  S
C319        C320   1.369       .  D
C319        H324   1.082       .  S
C320        C327   1.498       .  S
H321        C626   1.087       .  S
C325        C326   1.523       .  S
C325        C331   1.532       .  S
C325        C329   1.528       .  S
C325        C462   1.509       .  S
C326        C327   1.366       .  D
C326        H333   1.082       .  S
C327        C328   1.562       .  S
C328        C332   1.533       .  S
C328        C486   1.538       .  S
C328        H490   1.107       .  S
C329        C486   1.364       .  D
C330        C484   1.539       .  S
C330        C485   1.365       .  D
C331        C332   1.374       .  D
C331        H336   1.082       .  S
C332        C512   1.482   1_554  S
H334        C484   1.106       .  S
H335        C641   1.085       .  S
C337        C338   1.525       .  S
C337        C343   1.524       .  S
C337        C341   1.540       .  S
C337        C457   1.511       .  S
C338        C339   1.365       .  D
C338        H657   1.087       .  S
C339        C340   1.540       .  S
C339        C627   1.484       .  S
C340        C344   1.571       .  S
C340        C342   1.536       .  S
C340        H346   1.107       .  S
C341        C342   1.366       .  D
C341        H347   1.082       .  S
C343        C344   1.367       .  D
C343        H348   1.082       .  S
C344        C351   1.506       .  S
C349        C350   1.522       .  S
C349        C355   1.529       .  S
C349        C353   1.533       .  S
C349        C453   1.507       .  S
C350        C351   1.369       .  D
C350        H357   1.083       .  S
C351        C352   1.574       .  S
C352        C356   1.546       .  S
C352        C354   1.543       .  S
C352        H358   1.106       .  S
C353        C354   1.363       .  D
C353        H359   1.086       .  S
C354        C642   1.492       .  S
C355        C356   1.368       .  D
C355        H360   1.086       .  S
C356        C488   1.492       .  S
C361        C362   1.520       .  S
C361        C367   1.530       .  S
C361        C365   1.531       .  S
C361        C450   1.507       .  S
C362        C363   1.365       .  D
C362        H369   1.081       .  S
C363        C364   1.567       .  S
C363        C380   1.501       .  S
C364        C368   1.540       .  S
C364        C366   1.534       .  S
C364        H370   1.108       .  S
C365        C366   1.367       .  D
C365        H371   1.086       .  S
C366        C390   1.482       .  S
C367        C368   1.369       .  D
H372        C679   1.086       .  S
C373        C374   1.530       .  S
C373        C379   1.525       .  S
C373        C377   1.536       .  S
C373        C445   1.507       .  S
C374        C375   1.367       .  D
C374        H381   1.086       .  S
C375        C376   1.541       .  S
C375        C555   1.487   1_554  S
C376        C380   1.570       .  S
C376        C534   1.534       .  S
C376        H538   1.105   1_554  S
C377        C534   1.364       .  D
C378        C532   1.534       .  S
C378        C533   1.365       .  D
C379        C380   1.369       .  D
C379        H384   1.083       .  S
H382        C532   1.106       .  S
H383        C689   1.086       .  S
C385        C386   1.526       .  S
C385        C391   1.539       .  S
C385        C389   1.530       .  S
C385        C441   1.517       .  S
C386        C387   1.368       .  D
C386        H393   1.083       .  S
C387        C388   1.569       .  S
C387        C404   1.505       .  S
C388        C392   1.536       .  S
C388        C390   1.536       .  S
C388        H394   1.107       .  S
C389        C390   1.363       .  D
C389        H395   1.087       .  S
C391        C392   1.375       .  D
C391        H708   1.086       .  S
C392        C680   1.492       .  S
C397        C398   1.535       .  S
C397        C403   1.525       .  S
C397        C401   1.528       .  S
C397        C438   1.510       .  S
C398        C399   1.375       .  D
C398        H405   1.087       .  S
C399        C400   1.539       .  S
C399        C531   1.488       .  S
C400        C404   1.567       .  S
C400        C402   1.540       .  S
C400        H406   1.107       .  S
C401        C402   1.363       .  D
C401        H407   1.086       .  S
C402        C690   1.485       .  S
C403        C404   1.366       .  D
C403        H408   1.082       .  S
O409        V417   1.896       .  S
O409        C419   1.264       .  A
O410        V417   1.899       .  S
O410        C420   1.262       .  A
O411        V417   1.888       .  S
O411        C421   1.263       .  A
O412        V417   1.899       .  S
O412        C422   1.263       .  A
O413        V418   1.891       .  S
O413        C422   1.264       .  A
O414        V418   1.903       .  S
O414        C421   1.264       .  A
O415        V418   1.898       .  S
O415        C420   1.264       .  A
O416        V418   1.901       .  S
O416        C419   1.263       .  A
V417        V418   2.090       .  T
C419        C461   1.467       .  S
C420        C437   1.467       .  S
C421        C454   1.472       .  S
C422        C446   1.471       .  S
O423        V587   1.893   1_564  S
O423        C745   1.264       .  A
O424        V431   1.912       .  S
O424        C434   1.268       .  A
O425        V431   1.894       .  S
O425        C435   1.261   1_545  A
O426        V587   1.896   1_554  S
O426        C748   1.262       .  A
O427        V588   1.900   1_554  S
O427        C436   1.265       .  A
O428        V432   1.893   1_565  S
O429        V432   1.891       .  S
O430        V588   1.900   1_564  S
O430        C433   1.263       .  A
V431        O579   1.904   1_545  S
V431        O582   1.890       .  S
V431        V744   2.084       .  T
V432        O583   1.898       .  S
V432        O586   1.893   1_545  S
C433        C465   1.472       .  S
C434        O741   1.264       .  A
C434        C442   1.481       .  S
C435        O740   1.265       .  A
C435        C458   1.465       .  S
C436        C449   1.463       .  S
C437        C438   1.346       .  D
C437        H439   1.086       .  S
C438        H440   1.088       .  S
C441        C442   1.351       .  D
C441        H443   1.087       .  S
C442        H444   1.087       .  S
C445        C446   1.342       .  D
C445        H447   1.088       .  S
C446        H448   1.087       .  S
C449        C450   1.342       .  D
C450        H452   1.088       .  S
H451        C761   1.086       .  S
C453        C454   1.344       .  D
C453        H455   1.087       .  S
C454        H456   1.087       .  S
C457        C458   1.346       .  D
C457        H459   1.089       .  S
C458        H460   1.081       .  S
C461        C462   1.345       .  D
C461        H463   1.086       .  S
C462        H464   1.088       .  S
C465        C466   1.343       .  D
C465        H467   1.087       .  S
C466        H468   1.087       .  S
C469        C470   1.528       .  S
C469        C475   1.525       .  S
C469        C473   1.536       .  S
C469        C622   1.516       .  S
C470        C471   1.370       .  D
C471        C472   1.544       .  S
C472        C476   1.570       .  S
C472        C474   1.537       .  S
C472        H478   1.107       .  S
C473        C474   1.365       .  D
C473        H479   1.086       .  S
C474        C498   1.493       .  S
C475        C476   1.371       .  D
C475        H480   1.082       .  S
C476        C483   1.508       .  S
H477        C782   1.087       .  S
C481        C482   1.527       .  S
C481        C487   1.530       .  S
C481        C485   1.534       .  S
C481        C618   1.514       .  S
C482        C483   1.372       .  D
C482        H489   1.082       .  S
C483        C484   1.571       .  S
C484        C488   1.545       .  S
C487        C488   1.368       .  D
C487        H492   1.086       .  S
H491        C797   1.086       .  S
C493        C494   1.529       .  S
C493        C499   1.522       .  S
C493        C497   1.529       .  S
C493        C613   1.510       .  S
C494        C495   1.371       .  D
C494        H813   1.086       .  S
C495        C496   1.545       .  S
C495        C783   1.492       .  S
C496        C500   1.574       .  S
C496        C498   1.544       .  S
C496        H502   1.107       .  S
C497        C498   1.366       .  D
C497        H503   1.086       .  S
C499        C500   1.367       .  D
C499        H504   1.082       .  S
C500        C507   1.508       .  S
C505        C506   1.526       .  S
C505        C511   1.527       .  S
C505        C509   1.534       .  S
C505        C609   1.504       .  S
C506        C507   1.369       .  D
C506        H513   1.083       .  S
C507        C508   1.575       .  S
C508        C512   1.538       .  S
C508        C510   1.535       .  S
C508        H514   1.106       .  S
C509        C510   1.366       .  D
C509        H515   1.086       .  S
C510        C798   1.487   1_556  S
C511        C512   1.362       .  D
C511        H516   1.087       .  S
C517        C518   1.520       .  S
C517        C523   1.530       .  S
C517        C521   1.528       .  S
C517        C606   1.508       .  S
C518        C519   1.366       .  D
C518        H525   1.082       .  S
C519        C520   1.576       .  S
C519        C536   1.508       .  S
C520        C524   1.547       .  S
C520        C522   1.539       .  S
C520        H526   1.108       .  S
C521        C522   1.366       .  D
C521        H527   1.086       .  S
C522        C546   1.486       .  S
C523        C524   1.370       .  D
H528        C835   1.086       .  S
C529        C530   1.527       .  S
C529        C535   1.527       .  S
C529        C533   1.532       .  S
C529        C601   1.504       .  S
C530        C531   1.364       .  D
C530        H537   1.087       .  S
C531        C532   1.542       .  S
C532        C536   1.575       .  S
C535        C536   1.369       .  D
C535        H540   1.083       .  S
H539        C845   1.086       .  S
C541        C542   1.523       .  S
C541        C547   1.530       .  S
C541        C545   1.531       .  S
C541        C597   1.510       .  S
C542        C543   1.370       .  D
C542        H549   1.082       .  S
C543        C544   1.570       .  S
C543        C560   1.506       .  S
C544        C548   1.542       .  S
C544        C546   1.537       .  S
C544        H550   1.107       .  S
C545        C546   1.365       .  D
C545        H551   1.086       .  S
C547        C548   1.369       .  D
C547        H864   1.087       .  S
C548        C836   1.487       .  S
C553        C554   1.529       .  S
C553        C559   1.528       .  S
C553        C557   1.533       .  S
C553        C594   1.513       .  S
C554        C555   1.368       .  D
C554        H561   1.085       .  S
C555        C556   1.540       .  S
C556        C560   1.570       .  S
C556        C558   1.538       .  S
C556        H562   1.106       .  S
C557        C558   1.364       .  D
C557        H563   1.086       .  S
C558        C846   1.489   1_556  S
C559        C560   1.372       .  D
C559        H564   1.083       .  S
O565        V573   1.902       .  S
O565        C575   1.263       .  A
O566        V573   1.898       .  S
O566        C576   1.266       .  A
O567        V573   1.891       .  S
O567        C577   1.266       .  A
O568        V573   1.896       .  S
O568        C578   1.261       .  A
O569        V574   1.890       .  S
O569        C578   1.265       .  A
O570        V574   1.896       .  S
O570        C577   1.261       .  A
O571        V574   1.900       .  S
O571        C576   1.263       .  A
O572        V574   1.898       .  S
O572        C575   1.266       .  A
V573        V574   2.089       .  T
C575        C617   1.478       .  S
C576        C593   1.476       .  S
C577        C610   1.470       .  S
C578        C602   1.469       .  S
O579        C901   1.267       .  A
O580        V587   1.904       .  S
O580        C590   1.265       .  A
O581        V587   1.895       .  S
O581        C591   1.263   1_545  A
O582        C904   1.260       .  A
O583        C592   1.264       .  A
O584        V588   1.904       .  S
O585        V588   1.898       .  S
O586        C589   1.262       .  A
V587        V900   2.090       .  T
C589        C621   1.475       .  S
C590        O897   1.264       .  A
C590        C598   1.475       .  S
C591        O896   1.263   1_565  A
C591        C614   1.466       .  S
C592        C605   1.463       .  S
C593        C594   1.345       .  D
C593        H595   1.086       .  S
C594        H596   1.088       .  S
C597        C598   1.346       .  D
C597        H599   1.087       .  S
C598        H600   1.087       .  S
C601        C602   1.342       .  D
C601        H603   1.088       .  S
C602        H604   1.087       .  S
C605        C606   1.346       .  D
C606        H608   1.088       .  S
H607        C917   1.086       .  S
C609        C610   1.341       .  D
C609        H611   1.088       .  S
C610        H612   1.086       .  S
C613        C614   1.347       .  D
C613        H615   1.088       .  S
C614        H616   1.086       .  S
C617        C618   1.345       .  D
C617        H619   1.087       .  S
C618        H620   1.087       .  S
C621        C622   1.344       .  D
C621        H623   1.087       .  S
C622        H624   1.087       .  S
C625        C626   1.533       .  S
C625        C631   1.527       .  S
C625        C629   1.534       .  S
C625        C778   1.508       .  S
C626        C627   1.369       .  D
C627        C628   1.536       .  S
C628        C632   1.571       .  S
C628        C630   1.535       .  S
C628        H634   1.105       .  S
C629        C630   1.364       .  D
C629        H635   1.086       .  S
C630        C654   1.490       .  S
C631        C632   1.367       .  D
C631        H636   1.084       .  S
C632        C639   1.502       .  S
H633        C938   1.087       .  S
C637        C638   1.518       .  S
C637        C643   1.537       .  S
C637        C641   1.528       .  S
C637        C774   1.514       .  S
C638        C639   1.361       .  D
C638        H645   1.081       .  S
C639        C640   1.568       .  S
C640        C644   1.541       .  S
C640        C798   1.541       .  S
C640        H802   1.108       .  S
C641        C798   1.367       .  D
C642        C796   1.539       .  S
C642        C797   1.370       .  D
C643        C644   1.377       .  D
C643        H648   1.086       .  S
C644        C824   1.491   1_554  S
H646        C796   1.108       .  S
H647        C953   1.087       .  S
C649        C650   1.526       .  S
C649        C655   1.523       .  S
C649        C653   1.541       .  S
C649        C769   1.506       .  S
C650        C651   1.365       .  D
C650        H969   1.087       .  S
C651        C652   1.537       .  S
C651        C939   1.481       .  S
C652        C656   1.572       .  S
C652        C654   1.536       .  S
C652        H658   1.106       .  S
C653        C654   1.365       .  D
C653        H659   1.082       .  S
C655        C656   1.365       .  D
C655        H660   1.083       .  S
C656        C663   1.502       .  S
C661        C662   1.519       .  S
C661        C667   1.538       .  S
C661        C665   1.533       .  S
C661        C765   1.514       .  S
C662        C663   1.360       .  D
C662        H669   1.081       .  S
C663        C664   1.570       .  S
C664        C668   1.544       .  S
C664        C666   1.544       .  S
C664        H670   1.107       .  S
C665        C666   1.369       .  D
C665        H671   1.086       .  S
C666        C954   1.496       .  S
C667        C668   1.375       .  D
C667        H672   1.086       .  S
C668        C800   1.494       .  S
C673        C674   1.522       .  S
C673        C679   1.532       .  S
C673        C677   1.531       .  S
C673        C762   1.508       .  S
C674        C675   1.364       .  D
C674        H681   1.082       .  S
C675        C676   1.575       .  S
C675        C692   1.511       .  S
C676        C680   1.546       .  S
C676        C678   1.536       .  S
C676        H682   1.108       .  S
C677        C678   1.367       .  D
C677        H683   1.086       .  S
C678        C702   1.484       .  S
C679        C680   1.369       .  D
H684        C991   1.086       .  S
C685        C686   1.530       .  S
C685        C691   1.528       .  S
C685        C689   1.535       .  S
C685        C757   1.512       .  S
C686        C687   1.367       .  D
C686        H693   1.087       .  S
C687        C688   1.546       .  S
C687        C867   1.492   1_554  S
C688        C692   1.576       .  S
C688        C846   1.535       .  S
C688        H850   1.106   1_554  S
C689        C846   1.365       .  D
C690        C844   1.534       .  S
C690        C845   1.368       .  D
C691        C692   1.369       .  D
C691        H696   1.083       .  S
H694        C844   1.106       .  S
H695       C1001   1.086       .  S
C697        C698   1.525       .  S
C697        C703   1.537       .  S
C697        C701   1.531       .  S
C697        C753   1.514       .  S
C698        C699   1.366       .  D
C698        H705   1.083       .  S
C699        C700   1.570       .  S
C699        C716   1.505       .  S
C700        C704   1.536       .  S
C700        C702   1.536       .  S
C700        H706   1.107       .  S
C701        C702   1.365       .  D
C701        H707   1.086       .  S
C703        C704   1.374       .  D
C703       H1020   1.086       .  S
C704        C992   1.492       .  S
C709        C710   1.528       .  S
C709        C715   1.522       .  S
C709        C713   1.532       .  S
C709        C750   1.506       .  S
C710        C711   1.368       .  D
C710        H717   1.084       .  S
C711        C712   1.541       .  S
C711        C843   1.486       .  S
C712        C716   1.573       .  S
C712        C714   1.538       .  S
C712        H718   1.107       .  S
C713        C714   1.366       .  D
C713        H719   1.086       .  S
C714       C1002   1.488       .  S
C715        C716   1.365       .  D
C715        H720   1.082       .  S
O721        V729   1.913       .  S
O721        C731   1.268       .  A
O722        V729   1.904       .  S
O722        C732   1.265       .  A
O723        V729   1.896       .  S
O723        C733   1.261       .  A
O724        V729   1.897       .  S
O724        C734   1.263       .  A
O725        V730   1.900       .  S
O725        C734   1.266       .  A
O726        V730   1.908       .  S
O726        C733   1.267       .  A
O727        V730   1.887       .  S
O727        C732   1.261       .  A
O728        V730   1.890       .  S
O728        C731   1.259       .  A
V729        V730   2.088       .  T
C731        C773   1.469       .  S
C732        C749   1.462       .  S
C733        C766   1.471       .  S
C734        C758   1.473       .  S
O735        V899   1.889   1_564  S
O735       C1057   1.264       .  A
O736        V743   1.910       .  S
O736        C746   1.267       .  A
O737        V743   1.892       .  S
O737        C747   1.260   1_545  A
O738        V899   1.894   1_554  S
O738       C1060   1.261       .  A
O739        V900   1.899   1_554  S
O739        C748   1.264       .  A
O740        V744   1.895   1_565  S
O741        V744   1.896       .  S
O742        V900   1.901   1_564  S
O742        C745   1.263       .  A
V743        O891   1.906   1_545  S
V743        O894   1.893       .  S
V743       V1056   2.085       .  T
V744        O895   1.894       .  S
V744        O898   1.892   1_545  S
C745        C777   1.472       .  S
C746       O1053   1.264       .  A
C746        C754   1.478       .  S
C747       O1052   1.265       .  A
C747        C770   1.461       .  S
C748        C761   1.463       .  S
C749        C750   1.346       .  D
C749        H751   1.086       .  S
C750        H752   1.088       .  S
C753        C754   1.349       .  D
C753        H755   1.087       .  S
C754        H756   1.087       .  S
C757        C758   1.344       .  D
C757        H759   1.087       .  S
C758        H760   1.087       .  S
C761        C762   1.343       .  D
C762        H764   1.088       .  S
H763       C1073   1.086       .  S
C765        C766   1.340       .  D
C765        H767   1.088       .  S
C766        H768   1.086       .  S
C769        C770   1.344       .  D
C769        H771   1.089       .  S
C770        H772   1.082       .  S
C773        C774   1.340       .  D
C773        H775   1.086       .  S
C774        H776   1.089       .  S
C777        C778   1.344       .  D
C777        H779   1.087       .  S
C778        H780   1.087       .  S
C781        C782   1.530       .  S
C781        C787   1.524       .  S
C781        C785   1.537       .  S
C781        C934   1.509       .  S
C782        C783   1.369       .  D
C783        C784   1.546       .  S
C784        C788   1.576       .  S
C784        C786   1.536       .  S
C784        H790   1.105       .  S
C785        C786   1.366       .  D
C785        H791   1.086       .  S
C786        C810   1.494       .  S
C787        C788   1.366       .  D
C787        H792   1.083       .  S
C788        C795   1.505       .  S
H789       C1094   1.086       .  S
C793        C794   1.518       .  S
C793        C799   1.530       .  S
C793        C797   1.534       .  S
C793        C930   1.507       .  S
C794        C795   1.362       .  D
C794        H801   1.081       .  S
C795        C796   1.575       .  S
C796        C800   1.551       .  S
C799        C800   1.368       .  D
C799        H804   1.086       .  S
H803       C1109   1.086       .  S
C805        C806   1.529       .  S
C805        C811   1.529       .  S
C805        C809   1.530       .  S
C805        C925   1.515       .  S
C806        C807   1.369       .  D
C806       H1125   1.086       .  S
C807        C808   1.546       .  S
C807       C1095   1.492       .  S
C808        C812   1.576       .  S
C808        C810   1.543       .  S
C808        H814   1.107       .  S
C809        C810   1.365       .  D
C809        H815   1.086       .  S
C811        C812   1.371       .  D
C811        H816   1.082       .  S
C812        C819   1.516       .  S
C817        C818   1.531       .  S
C817        C823   1.533       .  S
C817        C821   1.532       .  S
C817        C921   1.519       .  S
C818        C819   1.372       .  D
C818        H825   1.083       .  S
C819        C820   1.574       .  S
C820        C824   1.542       .  S
C820        C822   1.537       .  S
C820        H826   1.107       .  S
C821        C822   1.367       .  D
C821        H827   1.086       .  S
C822       C1110   1.485   1_556  S
C823        C824   1.367       .  D
C823        H828   1.087       .  S
C829        C830   1.515       .  S
C829        C835   1.532       .  S
C829        C833   1.528       .  S
C829        C918   1.499       .  S
C830        C831   1.362       .  D
C830        H837   1.082       .  S
C831        C832   1.569       .  S
C831        C848   1.490       .  S
C832        C836   1.538       .  S
C832        C834   1.535       .  S
C832        H838   1.106       .  S
C833        C834   1.366       .  D
C833        H839   1.086       .  S
C834        C858   1.484       .  S
C835        C836   1.370       .  D
H840       C1147   1.086       .  S
C841        C842   1.533       .  S
C841        C847   1.516       .  S
C841        C845   1.532       .  S
C841        C913   1.502       .  S
C842        C843   1.372       .  D
C842        H849   1.082       .  S
C843        C844   1.537       .  S
C844        C848   1.566       .  S
C847        C848   1.359       .  D
C847        H852   1.082       .  S
H851       C1157   1.086       .  S
C853        C854   1.526       .  S
C853        C859   1.532       .  S
C853        C857   1.529       .  S
C853        C909   1.514       .  S
C854        C855   1.372       .  D
C854        H861   1.082       .  S
C855        C856   1.572       .  S
C855        C872   1.511       .  S
C856        C860   1.543       .  S
C856        C858   1.539       .  S
C856        H862   1.107       .  S
C857        C858   1.362       .  D
C857        H863   1.086       .  S
C859        C860   1.370       .  D
C859       H1176   1.087       .  S
C860       C1148   1.489       .  S
C865        C866   1.535       .  S
C865        C871   1.530       .  S
C865        C869   1.533       .  S
C865        C906   1.522       .  S
C866        C867   1.373       .  D
C866        H873   1.087       .  S
C867        C868   1.541       .  S
C868        C872   1.570       .  S
C868        C870   1.540       .  S
C868        H874   1.106       .  S
C869        C870   1.364       .  D
C869        H875   1.086       .  S
C870       C1158   1.490   1_556  S
C871        C872   1.372       .  D
C871        H876   1.083       .  S
O877        V885   1.894       .  S
O877        C887   1.263       .  A
O878        V885   1.902       .  S
O878        C888   1.265       .  A
O879        V885   1.900       .  S
O879        C889   1.265       .  A
O880        V885   1.892       .  S
O880        C890   1.263       .  A
O881        V886   1.896       .  S
O881        C890   1.261       .  A
O882        V886   1.908       .  S
O882        C889   1.266       .  A
O883        V886   1.910       .  S
O883        C888   1.267       .  A
O884        V886   1.899       .  S
O884        C887   1.263       .  A
V885        V886   2.089       .  T
C887        C929   1.463       .  S
C888        C905   1.484       .  S
C889        C922   1.482       .  S
C890        C914   1.460       .  S
O891       C1213   1.267       .  A
O892        V899   1.904       .  S
O892        C902   1.265       .  A
O893        V899   1.895       .  S
O893        C903   1.262   1_545  A
O894       C1216   1.261       .  A
O895        C904   1.264       .  A
O896        V900   1.901       .  S
O897        V900   1.892       .  S
O898        C901   1.261       .  A
V899       V1212   2.090       .  T
C901        C933   1.470       .  S
C902       O1209   1.264       .  A
C902        C910   1.476       .  S
C903       O1208   1.265       .  A
C903        C926   1.469       .  S
C904        C917   1.454       .  S
C905        C906   1.351       .  D
C905        H907   1.086       .  S
C906        H908   1.087       .  S
C909        C910   1.347       .  D
C909        H911   1.087       .  S
C910        H912   1.087       .  S
C913        C914   1.339       .  D
C913        H915   1.089       .  S
C914        H916   1.086       .  S
C917        C918   1.340       .  D
C918        H920   1.088       .  S
H919       C1229   1.087       .  S
C921        C922   1.348       .  D
C921        H923   1.087       .  S
C922        H924   1.086       .  S
C925        C926   1.352       .  D
C925        H927   1.087       .  S
C926        H928   1.086       .  S
C929        C930   1.341       .  D
C929        H931   1.086       .  S
C930        H932   1.088       .  S
C933        C934   1.341       .  D
C933        H935   1.087       .  S
C934        H936   1.087       .  S
C937        C938   1.531       .  S
C937        C943   1.523       .  S
C937        C941   1.532       .  S
C937       C1090   1.504       .  S
C938        C939   1.369       .  D
C939        C940   1.536       .  S
C940        C944   1.568       .  S
C940        C942   1.538       .  S
C940        H946   1.106       .  S
C941        C942   1.363       .  D
C941        H947   1.086       .  S
C942        C966   1.488       .  S
C943        C944   1.367       .  D
C943        H948   1.083       .  S
C944        C951   1.500       .  S
C949        C950   1.521       .  S
C949        C955   1.530       .  S
C949        C953   1.529       .  S
C949       C1086   1.504       .  S
C950        C951   1.365       .  D
C950        H957   1.082       .  S
C951        C952   1.567       .  S
C952        C956   1.537       .  S
C952       C1110   1.538       .  S
C952       H1114   1.107       .  S
C953       C1110   1.365       .  D
C954       C1108   1.538       .  S
C954       C1109   1.368       .  D
C955        C956   1.370       .  D
C955        H960   1.085       .  S
C956       C1136   1.480   1_554  S
H958       C1108   1.106       .  S
C961        C962   1.523       .  S
C961        C967   1.522       .  S
C961        C965   1.541       .  S
C961       C1081   1.510       .  S
C962        C963   1.365       .  D
C963        C964   1.534       .  S
C964        C968   1.563       .  S
C964        C966   1.535       .  S
C964        H970   1.107       .  S
C965        C966   1.368       .  D
C965        H971   1.082       .  S
C967        C968   1.368       .  D
C967        H972   1.082       .  S
C968        C975   1.499       .  S
C973        C974   1.522       .  S
C973        C979   1.531       .  S
C973        C977   1.532       .  S
C973       C1077   1.512       .  S
C974        C975   1.370       .  D
C974        H981   1.082       .  S
C975        C976   1.566       .  S
C976        C980   1.540       .  S
C976        C978   1.540       .  S
C976        H982   1.106       .  S
C977        C978   1.363       .  D
C977        H983   1.085       .  S
C979        C980   1.372       .  D
C979        H984   1.083       .  S
C980       C1112   1.489       .  S
C985        C986   1.522       .  S
C985        C991   1.532       .  S
C985        C989   1.531       .  S
C985       C1074   1.510       .  S
C986        C987   1.364       .  D
C986        H993   1.082       .  S
C987        C988   1.573       .  S
C987       C1004   1.509       .  S
C988        C992   1.544       .  S
C988        C990   1.536       .  S
C988        H994   1.108       .  S
C989        C990   1.368       .  D
C989        H995   1.086       .  S
C990       C1014   1.484       .  S
C991        C992   1.370       .  D
C997        C998   1.529       .  S
C997       C1003   1.526       .  S
C997       C1001   1.537       .  S
C997       C1069   1.511       .  S
C998        C999   1.366       .  D
C998       H1005   1.086       .  S
C999       C1000   1.544       .  S
C999       C1179   1.491   1_554  S
C1000      C1004   1.575       .  S
C1000      C1158   1.536       .  S
C1000      H1162   1.106   1_554  S
C1001      C1158   1.366       .  D
C1002      C1156   1.538       .  S
C1002      C1157   1.367       .  D
C1003      C1004   1.369       .  D
C1003      H1008   1.083       .  S
H1006      C1156   1.107       .  S
C1009      C1010   1.527       .  S
C1009      C1015   1.537   1_655  S
C1009      C1013   1.532       .  S
C1009      C1065   1.515       .  S
C1010      C1011   1.367       .  D
C1010      H1017   1.083       .  S
C1011      C1012   1.571       .  S
C1011      C1028   1.508       .  S
C1012      C1016   1.538   1_655  S
C1012      C1014   1.535       .  S
C1012      H1018   1.106       .  S
C1013      C1014   1.364       .  D
C1013      H1019   1.086       .  S
C1015      C1016   1.373       .  D
C1021      C1022   1.529       .  S
C1021      C1027   1.524       .  S
C1021      C1025   1.528       .  S
C1021      C1062   1.506       .  S
C1022      C1023   1.369       .  D
C1022      H1029   1.086       .  S
C1023      C1024   1.543       .  S
C1023      C1155   1.487       .  S
C1024      C1028   1.572       .  S
C1024      C1026   1.538       .  S
C1024      H1030   1.108       .  S
C1025      C1026   1.365       .  D
C1025      H1031   1.086   1_655  S
C1027      C1028   1.366       .  D
C1027      H1032   1.082       .  S
O1033      V1041   1.892       .  S
O1033      C1043   1.263       .  A
O1034      V1041   1.898       .  S
O1034      C1044   1.262       .  A
O1035      V1041   1.894       .  S
O1035      C1045   1.264       .  A
O1036      V1041   1.902       .  S
O1036      C1046   1.264       .  A
O1037      V1042   1.894       .  S
O1037      C1046   1.265       .  A
O1038      V1042   1.902       .  S
O1038      C1045   1.263       .  A
O1039      V1042   1.895       .  S
O1039      C1044   1.263       .  A
O1040      V1042   1.899       .  S
O1040      C1043   1.262       .  A
V1041      V1042   2.090       .  T
C1043      C1085   1.463       .  S
C1044      C1061   1.463       .  S
C1045      C1078   1.474       .  S
C1046      C1070   1.475       .  S
O1047      V1211   1.892   1_564  S
O1048      V1055   1.908       .  S
O1048      C1058   1.266       .  A
O1049      V1055   1.896       .  S
O1049      C1059   1.261   1_545  A
O1050      V1211   1.895   1_554  S
O1051      V1212   1.903   1_554  S
O1051      C1060   1.265       .  A
O1052      V1056   1.891   1_565  S
O1053      V1056   1.894       .  S
O1054      V1212   1.900   1_564  S
O1054      C1057   1.263       .  A
V1055      O1203   1.906   1_545  S
V1055      O1206   1.896       .  S
V1056      O1207   1.895       .  S
V1056      O1210   1.893   1_545  S
C1057      C1089   1.469       .  S
C1058      C1066   1.479       .  S
C1059      C1082   1.465       .  S
C1060      C1073   1.465       .  S
C1061      C1062   1.345       .  D
C1061      H1063   1.086       .  S
C1062      H1064   1.089       .  S
C1065      C1066   1.348       .  D
C1065      H1067   1.087   1_655  S
C1066      H1068   1.087       .  S
C1069      C1070   1.343       .  D
C1069      H1071   1.087       .  S
C1070      H1072   1.086       .  S
C1073      C1074   1.343       .  D
C1074      H1076   1.088       .  S
C1077      C1078   1.346       .  D
C1077      H1079   1.087       .  S
C1078      H1080   1.087       .  S
C1081      C1082   1.345       .  D
C1081      H1083   1.089       .  S
C1082      H1084   1.082       .  S
C1085      C1086   1.344       .  D
C1085      H1087   1.086       .  S
C1086      H1088   1.089       .  S
C1089      C1090   1.343       .  D
C1089      H1091   1.087       .  S
C1090      H1092   1.087       .  S
C1093      C1094   1.529       .  S
C1093      C1099   1.524       .  S
C1093      C1097   1.534       .  S
C1093      C1246   1.512       .  S
C1094      C1095   1.372       .  D
C1095      C1096   1.546       .  S
C1096      C1100   1.572       .  S
C1096      C1098   1.539       .  S
C1096      H1102   1.107       .  S
C1097      C1098   1.363       .  D
C1097      H1103   1.086       .  S
C1098      C1122   1.491       .  S
C1099      C1100   1.368       .  D
C1099      H1104   1.083       .  S
C1100      C1107   1.506       .  S
C1105      C1106   1.521       .  S
C1105      C1111   1.522       .  S
C1105      C1109   1.541       .  S
C1105      C1242   1.508       .  S
C1106      C1107   1.369       .  D
C1106      H1113   1.083       .  S
C1107      C1108   1.575       .  S
C1108      C1112   1.547       .  S
C1111      C1112   1.364       .  D
C1111      H1116   1.084       .  S
C1117      C1118   1.528       .  S
C1117      C1123   1.525       .  S
C1117      C1121   1.530       .  S
C1117      C1237   1.512       .  S
C1118      C1119   1.370       .  D
C1119      C1120   1.543       .  S
C1120      C1124   1.569       .  S
C1120      C1122   1.540       .  S
C1120      H1126   1.107       .  S
C1121      C1122   1.367       .  D
C1121      H1127   1.086       .  S
C1123      C1124   1.369       .  D
C1123      H1128   1.082       .  S
C1124      C1131   1.505       .  S
C1129      C1130   1.527       .  S
C1129      C1135   1.528       .  S
C1129      C1133   1.539       .  S
C1129      C1233   1.518       .  S
C1130      C1131   1.369       .  D
C1130      H1137   1.083       .  S
C1131      C1132   1.567       .  S
C1132      C1136   1.536       .  S
C1132      C1134   1.533       .  S
C1132      H1138   1.107       .  S
C1133      C1134   1.365       .  D
C1133      H1139   1.082       .  S
C1135      C1136   1.368       .  D
C1135      H1140   1.086       .  S
C1141      C1142   1.520       .  S
C1141      C1147   1.533       .  S
C1141      C1145   1.529       .  S
C1141      C1230   1.503       .  S
C1142      C1143   1.363       .  D
C1142      H1149   1.082       .  S
C1143      C1144   1.573       .  S
C1143      C1160   1.498       .  S
C1144      C1148   1.541       .  S
C1144      C1146   1.538       .  S
C1144      H1150   1.106       .  S
C1145      C1146   1.366       .  D
C1145      H1151   1.086       .  S
C1146      C1170   1.487       .  S
C1147      C1148   1.369       .  D
C1153      C1154   1.535       .  S
C1153      C1159   1.519       .  S
C1153      C1157   1.529       .  S
C1153      C1225   1.505       .  S
C1154      C1155   1.374       .  D
C1154      H1161   1.087       .  S
C1155      C1156   1.539       .  S
C1156      C1160   1.569       .  S
C1159      C1160   1.359       .  D
C1159      H1164   1.082       .  S
C1165      C1166   1.523       .  S
C1165      C1171   1.532   1_655  S
C1165      C1169   1.530       .  S
C1165      C1221   1.510       .  S
C1166      C1167   1.369       .  D
C1166      H1173   1.082       .  S
C1167      C1168   1.569       .  S
C1167      C1184   1.504       .  S
C1168      C1172   1.540   1_655  S
C1168      C1170   1.539       .  S
C1168      H1174   1.107       .  S
C1169      C1170   1.363       .  D
C1169      H1175   1.086       .  S
C1171      C1172   1.372       .  D
C1177      C1178   1.534       .  S
C1177      C1183   1.524       .  S
C1177      C1181   1.532       .  S
C1177      C1218   1.514       .  S
C1178      C1179   1.370       .  D
C1178      H1185   1.086       .  S
C1179      C1180   1.540       .  S
C1180      C1184   1.570       .  S
C1180      C1182   1.540       .  S
C1180      H1186   1.106       .  S
C1181      C1182   1.366       .  D
C1181      H1187   1.086       .  S
C1183      C1184   1.370       .  D
C1183      H1188   1.083       .  S
O1189      V1197   1.890       .  S
O1189      C1199   1.260       .  A
O1190      V1197   1.892       .  S
O1190      C1200   1.264       .  A
O1191      V1197   1.903       .  S
O1191      C1201   1.266       .  A
O1192      V1197   1.899       .  S
O1192      C1202   1.266       .  A
O1193      V1198   1.894       .  S
O1193      C1202   1.261       .  A
O1194      V1198   1.892       .  S
O1194      C1201   1.261       .  A
O1195      V1198   1.912       .  S
O1195      C1200   1.267       .  A
O1196      V1198   1.903       .  S
O1196      C1199   1.268       .  A
V1197      V1198   2.082       .  T
C1199      C1241   1.470       .  S
C1200      C1217   1.481       .  S
C1201      C1234   1.467       .  S
C1202      C1226   1.465       .  S
O1204      V1211   1.905       .  S
O1204      C1214   1.265       .  A
O1205      V1211   1.894       .  S
O1205      C1215   1.262   1_545  A
O1207      C1216   1.263       .  A
O1208      V1212   1.905   1_565  S
O1209      V1212   1.896       .  S
O1210      C1213   1.262       .  A
C1213      C1245   1.472       .  S
C1214      C1222   1.473       .  S
C1215      C1238   1.469       .  S
C1216      C1229   1.458       .  S
C1217      C1218   1.348       .  D
C1217      H1219   1.086       .  S
C1218      H1220   1.087       .  S
C1221      C1222   1.347       .  D
C1221      H1223   1.087   1_655  S
C1222      H1224   1.087       .  S
C1225      C1226   1.340       .  D
C1225      H1227   1.089       .  S
C1226      H1228   1.086       .  S
C1229      C1230   1.342       .  D
C1230      H1232   1.088       .  S
C1233      C1234   1.348       .  D
C1233      H1235   1.088       .  S
C1234      H1236   1.081       .  S
C1237      C1238   1.350       .  D
C1237      H1239   1.088       .  S
C1238      H1240   1.086       .  S
C1241      C1242   1.338       .  D
C1241      H1243   1.087       .  S
C1242      H1244   1.088       .  S
C1245      C1246   1.344       .  D
C1245      H1247   1.087       .  S
C1246      H1248   1.087       .  S
