geometry optimzed in LAMMPS
_audit_creation_date              2020-12-01 
_audit_creation_method            'lammps2cif' 
_symmetry_space_group_name_H-M    'P1' 
_symmetry_Int_Tables_number       1 
_symmetry_cell_setting            triclinic 
loop_ 
_symmetry_equiv_pos_as_xyz 
  x,y,z 
_cell_length_a                    48.81660836 
_cell_length_b                    48.70772461713502 
_cell_length_c                    48.78173847134167 
_cell_angle_alpha                 89.89047634316258 
_cell_angle_beta                  89.927629416048 
_cell_angle_gamma                 90.31076227050276 
loop_ 
_atom_site_label 
_atom_site_type_symbol 
_atom_site_fract_x 
_atom_site_fract_y 
_atom_site_fract_z 
_atom_site_charge 
N1          N  0.48122943  0.38067689  0.13864880    -0.27600
N2          N  0.47507479  0.36479715  0.15978800    -0.35500
C3          C  0.49703968  0.36300830  0.17630639     0.00700
C4          C  0.51814921  0.37861932  0.16514094     0.06800
C5          C  0.50727408  0.38946508  0.14118387    -0.06300
H6          H  0.49713786  0.35208045  0.19562391     0.07400
H7          H  0.51730483  0.40312084  0.12678302     0.08600
Cu8        Cu  0.43619205  0.34880557  0.16675893     0.44200
Cu9        Cu  0.45338324  0.39075683  0.10808268     0.42000
Cu10       Cu  0.38304889  0.36909252  0.11916912     0.43900
N11         N  0.39474868  0.34146457  0.17307571    -0.35000
N12         N  0.37528255  0.35005679  0.15636290    -0.29200
C13         C  0.35072858  0.34552764  0.16813418    -0.05300
C14         C  0.35495066  0.33314870  0.19331883     0.06900
C15         C  0.38308710  0.33080225  0.19571125     0.00700
H16         H  0.33131527  0.35144719  0.15930312     0.08300
H17         H  0.39432601  0.32354302  0.21337422     0.07400
N18         N  0.39641426  0.38876052  0.08393476    -0.36400
N19         N  0.42192812  0.39717492  0.08014602    -0.28600
C20         C  0.42369235  0.40995950  0.05576326    -0.03900
C21         C  0.39807774  0.40947089  0.04349960     0.04800
C22         C  0.38132124  0.39574653  0.06197341     0.02800
H23         H  0.44236567  0.41876406  0.04754249     0.07900
H24         H  0.35961675  0.39165544  0.05995954     0.06800
N25         N  0.37920287  0.22790114  0.39997218    -0.27600
N26         N  0.36255775  0.24846285  0.39450242    -0.35500
C27         C  0.36121188  0.26499383  0.41654874     0.00700
C28         C  0.37798160  0.25435492  0.43688584     0.06800
C29         C  0.38893924  0.23074124  0.42554724    -0.06300
H30         H  0.34970844  0.28389663  0.41725183     0.07400
H31         H  0.40320225  0.21669807  0.43496918     0.08600
Cu32       Cu  0.34508106  0.25405951  0.35616348     0.44200
Cu33       Cu  0.38891176  0.19759942  0.37200154     0.42000
Cu34       Cu  0.36501034  0.20562515  0.30241014     0.43900
N35         N  0.33644508  0.25912126  0.31484018    -0.35000
N36         N  0.34475442  0.24236095  0.29523868    -0.29200
C37         C  0.33930702  0.25384284  0.27074284    -0.05300
C38         C  0.32667643  0.27884385  0.27516255     0.06900
C39         C  0.32512290  0.28143061  0.30334048     0.00700
H40         H  0.34499117  0.24506824  0.25120128     0.08300
H41         H  0.31813641  0.29914473  0.31467060     0.07400
N42         N  0.38563518  0.17109325  0.31627769    -0.36400
N43         N  0.39475210  0.16862467  0.34164787    -0.28600
C44         C  0.40716740  0.14425971  0.34444816    -0.03900
C45         C  0.40574112  0.13048316  0.31967705     0.04800
C46         C  0.39187307  0.14816420  0.30226724     0.02800
H47         H  0.41599990  0.13694399  0.36340510     0.07900
H48         H  0.38680010  0.14475905  0.28096106     0.06800
C49         C  0.33446030  0.32709724  0.21479319     0.02800
C50         C  0.31239768  0.34494222  0.21918171    -0.13300
C51         C  0.29446705  0.34079828  0.24135772     0.00300
C52         C  0.29855443  0.31836947  0.25897530    -0.11900
C53         C  0.32055406  0.30040240  0.25479957     0.02800
C54         C  0.33825519  0.30473875  0.23252083    -0.11300
H55         H  0.30975017  0.36262510  0.20595515     0.08400
H56         H  0.28525109  0.31547971  0.27655504     0.05900
H57         H  0.35566546  0.29135091  0.22958977     0.05800
N58         N  0.16006878  0.42751723  0.31144199    -0.27600
N59         N  0.16387223  0.40170680  0.30412176    -0.35500
C60         C  0.14224176  0.38662303  0.31254709     0.00700
C61         C  0.12412852  0.40379019  0.32605126     0.06800
C62         C  0.13617767  0.42954425  0.32490460    -0.06300
H63         H  0.14011939  0.36473294  0.30943892     0.07400
H64         H  0.12807576  0.44853319  0.33292943     0.08600
Cu65       Cu  0.19882425  0.38837848  0.28386067     0.44200
Cu66       Cu  0.18712357  0.45917299  0.30306167     0.42000
Cu67       Cu  0.24733933  0.44228564  0.26459267     0.43900
N68         N  0.23618021  0.38117480  0.26473584    -0.35000
N69         N  0.25317721  0.40087652  0.25675333    -0.29200
C70         C  0.27575644  0.38945462  0.24597363    -0.05300
C71         C  0.27307683  0.36120982  0.24756266     0.06900
C72         C  0.24775943  0.35668386  0.25964888     0.00700
H73         H  0.29356083  0.40088823  0.23911767     0.08300
H74         H  0.23873429  0.33706646  0.26504561     0.07400
N75         N  0.23971145  0.48129420  0.27967185    -0.36400
N76         N  0.21760561  0.48731842  0.29402794    -0.28600
C77         C  0.21942196  0.51340559  0.30273053    -0.03900
C78         C  0.24395232  0.52446655  0.29344690     0.04800
C79         C  0.25623235  0.50347086  0.27879167     0.02800
H80         H  0.20418606  0.52329533  0.31537254     0.07900
H81         H  0.27621806  0.50382428  0.26919378     0.06800
N82         N  0.37083080  0.48343880  0.90160326    -0.27600
N83         N  0.35666378  0.46124139  0.89503332    -0.35500
C84         C  0.35549132  0.44442528  0.91695994     0.00700
C85         C  0.36978606  0.45664077  0.93832691     0.06800
C86         C  0.37905593  0.48142651  0.92775711    -0.06300
H87         H  0.34609617  0.42426160  0.91687377     0.07400
H88         H  0.39155973  0.49666375  0.93797409     0.08600
Cu89       Cu  0.34246721  0.45415881  0.85559673     0.44200
Cu90       Cu  0.38090735  0.51434194  0.87424100     0.42000
Cu91       Cu  0.36345255  0.50406103  0.80325395     0.43900
N92         N  0.33528420  0.44968390  0.81394223    -0.35000
N93         N  0.34386916  0.46705046  0.79484830    -0.29200
C94         C  0.33907605  0.45602543  0.77001253    -0.05300
C95         C  0.32654565  0.43071231  0.77370298     0.06900
C96         C  0.32439603  0.42745197  0.80178156     0.00700
H97         H  0.34507881  0.46535144  0.75075756     0.08300
H98         H  0.31719530  0.40939955  0.81262477     0.07400
N99         N  0.38360907  0.53881355  0.81763409    -0.36400
N100        N  0.39042086  0.54221800  0.84361388    -0.28600
C101        C  0.40376562  0.56625435  0.84638097    -0.03900
C102        C  0.40527004  0.57880035  0.82092218     0.04800
C103        C  0.39219687  0.56079453  0.80318498     0.02800
H104        H  0.41135491  0.57417520  0.86564489     0.07900
H105        H  0.38939018  0.56327890  0.78132992     0.06800
N106        N  0.21939252  0.21982752  0.78884141    -0.27600
N107        N  0.24148516  0.22691922  0.77479214    -0.35500
C108        C  0.25889726  0.20559859  0.77423040     0.00700
C109        C  0.24733255  0.18398649  0.78882234     0.06800
C110        C  0.22220277  0.19382266  0.79769611    -0.06300
H111        H  0.27907664  0.20633064  0.76507105     0.07400
H112        H  0.20729473  0.18318138  0.81030056     0.08600
Cu113      Cu  0.24832251  0.26637773  0.76020866     0.44200
Cu114      Cu  0.18768904  0.24684238  0.79752423     0.42000
Cu115      Cu  0.19983107  0.31874194  0.78113867     0.43900
N116        N  0.25393610  0.30803497  0.75329469    -0.35000
N117        N  0.23697211  0.32724726  0.76194915    -0.29200
C118        C  0.24836319  0.35204785  0.75722667    -0.05300
C119        C  0.27354198  0.34822492  0.74468993     0.06900
C120        C  0.27631467  0.32006711  0.74248148     0.00700
H121        H  0.23930256  0.37137350  0.76314758     0.08300
H122        H  0.29407255  0.30906319  0.73518144     0.07400
N123        N  0.16438406  0.30424629  0.80002131    -0.36400
N124        N  0.16011938  0.27810846  0.80612980    -0.28600
C125        C  0.13589366  0.27563271  0.81907840    -0.03900
C126        C  0.12419300  0.30142792  0.82120159     0.04800
C127        C  0.14285446  0.31904378  0.80874371     0.02800
H128        H  0.12748315  0.25638260  0.82641406     0.07900
H129        H  0.14127670  0.34109764  0.80673345     0.06800
C130        C  0.32082821  0.40950151  0.75290092     0.02800
C131        C  0.33929124  0.40520295  0.73127174    -0.13300
C132        C  0.33581254  0.38288286  0.71344265     0.00300
C133        C  0.31343653  0.36503490  0.71713567    -0.11900
C134        C  0.29487881  0.36904243  0.73875658     0.02800
C135        C  0.29851810  0.39151871  0.75635276    -0.11300
H136        H  0.35701540  0.41850883  0.72899757     0.08400
H137        H  0.31111959  0.34734121  0.70389207     0.05900
H138        H  0.28473759  0.39431199  0.77354052     0.05800
N139        N  0.48272891  0.32469372  0.64262610    -0.27600
N140        N  0.47678050  0.34015647  0.66400684    -0.35500
C141        C  0.49874142  0.34142435  0.68060544     0.00700
C142        C  0.51959014  0.32591892  0.66914962     0.06800
C143        C  0.50857896  0.31568096  0.64501393    -0.06300
H144        H  0.49909022  0.35213837  0.69999897     0.07400
H145        H  0.51843539  0.30246708  0.63024668     0.08600
Cu146      Cu  0.43832512  0.35694100  0.67034447     0.44200
Cu147      Cu  0.45524870  0.31592110  0.61149007     0.42000
Cu148      Cu  0.38609158  0.34036460  0.61926736     0.43900
N149        N  0.39710689  0.36630830  0.67446865    -0.35000
N150        N  0.37801048  0.35923847  0.65655874    -0.29200
C151        C  0.35324212  0.36499334  0.66716679    -0.05300
C152        C  0.35695759  0.37659468  0.69277923     0.06900
C153        C  0.38501241  0.37718325  0.69668712     0.00700
H154        H  0.33394107  0.36030966  0.65730527     0.08300
H155        H  0.39575161  0.38333814  0.71508522     0.07400
N156        N  0.39995728  0.32030763  0.58439398    -0.36400
N157        N  0.42521004  0.31102323  0.58191606    -0.28600
C158        C  0.42787430  0.29861172  0.55750452    -0.03900
C159        C  0.40309087  0.30012120  0.54372707     0.04800
C160        C  0.38587478  0.31413035  0.56148139     0.02800
H161        H  0.44666883  0.28941104  0.55033782     0.07900
H162        H  0.36455411  0.31909652  0.55827748     0.06800
N163        N  0.98013114  0.38207283  0.39818843    -0.27600
N164        N  0.97450216  0.36593276  0.37717950    -0.35500
C165        C  0.99695575  0.36381192  0.36132317     0.00700
C166        C  0.01777456  0.37944964  0.37287932     0.06800
C167        C  0.00625909  0.39063764  0.39630301    -0.06300
H168        H  0.99764546  0.35253605  0.34226030     0.07400
H169        H  0.01590317  0.40435315  0.41082392     0.08600
Cu170      Cu  0.93587837  0.34962605  0.36983860     0.44200
Cu171      Cu  0.95193744  0.39304629  0.42790122     0.42000
Cu172      Cu  0.88296459  0.36868314  0.41876172     0.43900
N173        N  0.89450758  0.34139565  0.36446611    -0.35000
N174        N  0.87523985  0.34923039  0.38180703    -0.29200
C175        C  0.85055514  0.34442337  0.37055762    -0.05300
C176        C  0.85444772  0.33274585  0.34503327     0.06900
C177        C  0.88256307  0.33099824  0.34190351     0.00700
H178        H  0.83124136  0.34998098  0.37986479     0.08300
H179        H  0.89353658  0.32450828  0.32377495     0.07400
N180        N  0.89561640  0.39063365  0.45286145    -0.36400
N181        N  0.92078490  0.40027880  0.45576850    -0.28600
C182        C  0.92247423  0.41409518  0.47953435    -0.03900
C183        C  0.89717077  0.41291164  0.49239483     0.04800
C184        C  0.88065144  0.39780534  0.47485916     0.02800
H185        H  0.94098434  0.42369068  0.48715376     0.07900
H186        H  0.85926822  0.39259198  0.47769973     0.06800
N187        N  0.87275403  0.22619130  0.13825664    -0.27600
N188        N  0.85782747  0.24797678  0.14397686    -0.35500
C189        C  0.85779262  0.26483285  0.12209103     0.00700
C190        C  0.87357860  0.25314120  0.10154598     0.06800
C191        C  0.88262568  0.22855966  0.11263117    -0.06300
H192        H  0.84784922  0.28461305  0.12166015     0.07400
H193        H  0.89583902  0.21361044  0.10308302     0.08600
Cu194      Cu  0.84073719  0.25486265  0.18231715     0.44200
Cu195      Cu  0.88096294  0.19534585  0.16627412     0.42000
Cu196      Cu  0.85932527  0.20609657  0.23613810     0.43900
N197        N  0.83189865  0.26025752  0.22358100    -0.35000
N198        N  0.83961324  0.24311878  0.24314321    -0.29200
C199        C  0.83462751  0.25465563  0.26765715    -0.05300
C200        C  0.82296316  0.28012843  0.26334741     0.06900
C201        C  0.82140170  0.28293321  0.23516817     0.00700
H202        H  0.84020260  0.24566272  0.28715060     0.08300
H203        H  0.81513865  0.30100583  0.22392486     0.07400
N204        N  0.88086170  0.17170521  0.22346658    -0.36400
N205        N  0.88892492  0.16811476  0.19786642    -0.28600
C206        C  0.90291186  0.14452779  0.19610070    -0.03900
C207        C  0.90370601  0.13246706  0.22183049     0.04800
C208        C  0.88939565  0.15030329  0.23868899     0.02800
H209        H  0.91156730  0.13666457  0.17728822     0.07900
H210        H  0.88573494  0.14813689  0.26046255     0.06800
C211        C  0.79254174  0.34173621  0.29933903     0.02800
C212        C  0.79595476  0.31982006  0.28099666    -0.13300
C213        C  0.81806656  0.30174277  0.28390334     0.00300
C214        C  0.83671926  0.30560355  0.30544620    -0.11900
C215        C  0.83353685  0.32741894  0.32386825     0.02800
C216        C  0.81130640  0.34530129  0.32081297    -0.11300
H217        H  0.78191630  0.31729089  0.26398748     0.08400
H218        H  0.85418190  0.29210627  0.30742969     0.05900
H219        H  0.80906213  0.36253810  0.33463004     0.05800
N220        N  0.71538992  0.48802135  0.24948389    -0.27600
N221        N  0.73703672  0.48241483  0.26465652    -0.35500
C222        C  0.75308751  0.50491611  0.26605068     0.00700
C223        C  0.74096636  0.52572934  0.25091536     0.06800
C224        C  0.71702429  0.51416016  0.24080884    -0.06300
H225        H  0.77265155  0.50562352  0.27639976     0.07400
H226        H  0.70201931  0.52374463  0.22767130     0.08600
Cu227      Cu  0.74468535  0.44355088  0.28024093     0.44200
Cu228      Cu  0.68550087  0.45947853  0.23958975     0.42000
Cu229      Cu  0.69554982  0.38964266  0.26127652     0.43900
N230        N  0.75039868  0.40199261  0.28752883    -0.35000
N231        N  0.73318721  0.38243509  0.27974023    -0.29200
C232        C  0.74503337  0.35786972  0.28373853    -0.05300
C233        C  0.77077394  0.36216583  0.29483750     0.06900
C234        C  0.77339921  0.39036092  0.29709852     0.00700
H235        H  0.73597503  0.33839293  0.27800809     0.08300
H236        H  0.79147722  0.40166737  0.30333488     0.07400
N237        N  0.66121657  0.40249270  0.23971239    -0.36400
N238        N  0.65805927  0.42807276  0.23129365    -0.28600
C239        C  0.63474099  0.42991098  0.21684575    -0.03900
C240        C  0.62239133  0.40425081  0.21614563     0.04800
C241        C  0.63975839  0.38736545  0.23100548     0.02800
H242        H  0.62727471  0.44869900  0.20774551     0.07900
H243        H  0.63734243  0.36558419  0.23471610     0.06800
N244        N  0.97714688  0.98940605  0.24483800    -0.27600
N245        N  0.95587694  0.98359579  0.26060256    -0.35500
C246        C  0.93988582  0.00591969  0.26251449     0.00700
C247        C  0.95160143  0.02686221  0.24708012     0.06800
C248        C  0.97527166  0.01555468  0.23622846    -0.06300
H249        H  0.92058038  0.00641573  0.27339441     0.07400
H250        H  0.98991252  0.02536807  0.22268238     0.08600
Cu251      Cu  0.94842796  0.94470305  0.27624694     0.44200
Cu252      Cu  0.00683264  0.96093352  0.23454707     0.42000
Cu253      Cu  0.99578880  0.89049158  0.25639390     0.43900
N254        N  0.94184635  0.90337391  0.28400500    -0.35000
N255        N  0.95837538  0.88353519  0.27590262    -0.29200
C256        C  0.94609496  0.85917681  0.28072387    -0.05300
C257        C  0.92079563  0.86395759  0.29268827     0.06900
C258        C  0.91889478  0.89219876  0.29453551     0.00700
H259        H  0.95455108  0.83950105  0.27505251     0.08300
H260        H  0.90131495  0.90384288  0.30124766     0.07400
N261        N  0.03049565  0.90374934  0.23514457    -0.36400
N262        N  0.03408934  0.92936671  0.22684086    -0.28600
C263        C  0.05791873  0.93131455  0.21313629    -0.03900
C264        C  0.07016187  0.90571022  0.21278988     0.04800
C265        C  0.05213880  0.88874288  0.22705123     0.02800
H266        H  0.06582490  0.95017595  0.20438018     0.07900
H267        H  0.05431545  0.86699453  0.23092387     0.06800
N268        N  0.82120653  0.72430544  0.14002309    -0.27600
N269        N  0.83828359  0.74482258  0.14499625    -0.35500
C270        C  0.84022423  0.76064996  0.12241479     0.00700
C271        C  0.82337178  0.74962426  0.10231144     0.06800
C272        C  0.81176185  0.72651522  0.11428325    -0.06300
H273        H  0.85193572  0.77953392  0.12125837     0.07400
H274        H  0.79706109  0.71254071  0.10524660     0.08600
Cu275      Cu  0.85482512  0.75217703  0.18350602     0.44200
Cu276      Cu  0.80974004  0.69526698  0.16883592     0.42000
Cu277      Cu  0.83193275  0.70610446  0.23822224     0.43900
N278        N  0.86066335  0.75962940  0.22500261    -0.35000
N279        N  0.85128358  0.74354329  0.24482149    -0.29200
C280        C  0.85467873  0.75630778  0.26902552    -0.05300
C281        C  0.86705953  0.78149820  0.26425813     0.06900
C282        C  0.87066837  0.78283410  0.23613782     0.00700
H283        H  0.84789080  0.74816859  0.28855241     0.08300
H284        H  0.87828756  0.80017555  0.22445586     0.07400
N285        N  0.81007165  0.67167122  0.22585410    -0.36400
N286        N  0.80131926  0.66822286  0.20047705    -0.28600
C287        C  0.78722089  0.64452872  0.19892181    -0.03900
C288        C  0.78720469  0.63225481  0.22455493     0.04800
C289        C  0.80197778  0.65006216  0.24112758     0.02800
H290        H  0.77820902  0.63659106  0.18028767     0.07900
H291        H  0.80630540  0.64769755  0.26274306     0.06800
C292        C  0.89864975  0.84389881  0.29823844     0.02800
C293        C  0.89459350  0.82155928  0.28055670    -0.13300
C294        C  0.87222396  0.80371431  0.28420256     0.00300
C295        C  0.85393097  0.80820985  0.30596688    -0.11900
C296        C  0.85773949  0.83045670  0.32387014     0.02800
C297        C  0.88023569  0.84814066  0.31996238    -0.11300
H298        H  0.90842500  0.81847628  0.26346307     0.08400
H299        H  0.83633424  0.79480464  0.30858396     0.05900
H300        H  0.88299000  0.86567026  0.33333878     0.05800
N301        N  0.71088411  0.87962734  0.40218024    -0.27600
N302        N  0.71717258  0.86484653  0.38040594    -0.35500
C303        C  0.69523803  0.86339554  0.36380093     0.00700
C304        C  0.67403559  0.87809723  0.37559798     0.06800
C305        C  0.68478684  0.88802155  0.39999760    -0.06300
H306        H  0.69521050  0.85334921  0.34404819     0.07400
H307        H  0.67464049  0.90080900  0.41494756     0.08600
Cu308      Cu  0.75614953  0.85000646  0.37281150     0.44200
Cu309      Cu  0.73858942  0.88913953  0.43305223     0.42000
Cu310      Cu  0.80925411  0.86992973  0.42087847     0.43900
N311        N  0.79756187  0.84366129  0.36608137    -0.35000
N312        N  0.81707070  0.85204831  0.38293564    -0.29200
C313        C  0.84157196  0.84804138  0.37090705    -0.05300
C314        C  0.83724667  0.83624878  0.34542844     0.06900
C315        C  0.80910149  0.83369929  0.34314758     0.00700
H316        H  0.86104959  0.85379031  0.37982418     0.08300
H317        H  0.79776142  0.82662237  0.32545241     0.07400
N318        N  0.79569899  0.88848047  0.45680695    -0.36400
N319        N  0.77001836  0.89589705  0.46094459    -0.28600
C320        C  0.76805088  0.90801177  0.48561121    -0.03900
C321        C  0.79371684  0.90818230  0.49779315     0.04800
C322        C  0.81070607  0.89551272  0.47887391     0.02800
H323        H  0.74918239  0.91588682  0.49407305     0.07900
H324        H  0.83250211  0.89211142  0.48070087     0.06800
N325        N  0.98221527  0.32440925  0.89719498    -0.27600
N326        N  0.97657821  0.34082581  0.87638900    -0.35500
C327        C  0.99878619  0.34280868  0.86010430     0.00700
C328        C  0.01943467  0.32671237  0.87109140     0.06800
C329        C  0.00808776  0.31541981  0.89467349    -0.06300
H330        H  0.99939482  0.35421695  0.84106605     0.07400
H331        H  0.01774004  0.30143321  0.90888782     0.08600
Cu332      Cu  0.93799741  0.35741154  0.86990063     0.44200
Cu333      Cu  0.95419566  0.31444035  0.92769505     0.42000
Cu334      Cu  0.88512156  0.34001291  0.91982581     0.43900
N335        N  0.89668035  0.36593230  0.86466179    -0.35000
N336        N  0.87731660  0.35856686  0.88223338    -0.29200
C337        C  0.85268191  0.36344240  0.87090957    -0.05300
C338        C  0.85674277  0.37474069  0.84513083     0.06900
C339        C  0.88488172  0.37611087  0.84193476     0.00700
H340        H  0.83326757  0.35823046  0.88035107     0.08300
H341        H  0.89594191  0.38218763  0.82364970     0.07400
N342        N  0.89877937  0.31964814  0.95466838    -0.36400
N343        N  0.92379458  0.30969817  0.95710187    -0.28600
C344        C  0.92604246  0.29696664  0.98145756    -0.03900
C345        C  0.90128152  0.29906022  0.99521210     0.04800
C346        C  0.88450134  0.31368181  0.97756428     0.02800
H347        H  0.94452132  0.28717812  0.98866622     0.07900
H348        H  0.86328745  0.31909925  0.98080177     0.06800
N349        N  0.71868612  0.21709427  0.74790488    -0.27600
N350        N  0.74036411  0.22307775  0.76298353    -0.35500
C351        C  0.75662801  0.20088659  0.76426774     0.00700
C352        C  0.74467148  0.17992009  0.74913282     0.06800
C353        C  0.72058969  0.19104093  0.73910934    -0.06300
H354        H  0.77621000  0.20046034  0.77459083     0.07400
H355        H  0.70561046  0.18112229  0.72609254     0.08600
Cu356      Cu  0.74790426  0.26202823  0.77874150     0.44200
Cu357      Cu  0.68817837  0.24498860  0.73871606     0.42000
Cu358      Cu  0.69902413  0.31515773  0.76015158     0.43900
N359        N  0.75380867  0.30364746  0.78630794    -0.35000
N360        N  0.73656282  0.32299846  0.77851036    -0.29200
C361        C  0.74822637  0.34773291  0.78266905    -0.05300
C362        C  0.77391395  0.34379808  0.79392822     0.06900
C363        C  0.77669036  0.31560342  0.79608343     0.00700
H364        H  0.73905859  0.36709902  0.77700335     0.08300
H365        H  0.79478832  0.30456202  0.80242195     0.07400
N366        N  0.66420302  0.30190135  0.73963935    -0.36400
N367        N  0.66062303  0.27631033  0.73138501    -0.28600
C368        C  0.63681227  0.27441460  0.71774078    -0.03900
C369        C  0.62464705  0.30003441  0.71744766     0.04800
C370        C  0.64258210  0.31695578  0.73165418     0.02800
H371        H  0.62890565  0.25564303  0.70887555     0.07900
H372        H  0.64042348  0.33871675  0.73541322     0.06800
C373        C  0.79548288  0.36464485  0.79865557     0.02800
C374        C  0.79902081  0.38655431  0.78019068    -0.13300
C375        C  0.82095533  0.40508220  0.78321667     0.00300
C376        C  0.83930436  0.40165627  0.80511555    -0.11900
C377        C  0.83598015  0.37983617  0.82372554     0.02800
C378        C  0.81391247  0.36154205  0.82047375    -0.11300
H379        H  0.78518452  0.38873614  0.76298135     0.08400
H380        H  0.85664878  0.41546677  0.80721968     0.05900
H381        H  0.81159084  0.34430865  0.83438154     0.05800
N382        N  0.87009764  0.48350833  0.63628231    -0.27600
N383        N  0.85547939  0.46133911  0.64203250    -0.35500
C384        C  0.85502230  0.44494529  0.61985108     0.00700
C385        C  0.87019866  0.45737958  0.59910279     0.06800
C386        C  0.87934935  0.48186476  0.61039997    -0.06300
H387        H  0.84518858  0.42500740  0.61931787     0.07400
H388        H  0.89209422  0.49734059  0.60076903     0.08600
Cu389      Cu  0.83942007  0.45350850  0.68078415     0.44200
Cu390      Cu  0.87813191  0.51442455  0.66417671     0.42000
Cu391      Cu  0.85729577  0.50343240  0.73411395     0.43900
N392        N  0.83265877  0.44736153  0.72245620    -0.35000
N393        N  0.84037438  0.46475591  0.74181865    -0.29200
C394        C  0.83670054  0.45275643  0.76646044    -0.05300
C395        C  0.82579428  0.42675934  0.76244927     0.06900
C396        C  0.82340132  0.42412375  0.73430683     0.00700
H397        H  0.84217669  0.46203771  0.78584007     0.08300
H398        H  0.81707804  0.40597023  0.72318683     0.07400
N399        N  0.87614355  0.53950777  0.72052997    -0.36400
N400        N  0.88417107  0.54303141  0.69488324    -0.28600
C401        C  0.89696978  0.56739904  0.69252048    -0.03900
C402        C  0.89704135  0.58009353  0.71791016     0.04800
C403        C  0.88348701  0.56179441  0.73517907     0.02800
H404        H  0.90567904  0.57515982  0.67361832     0.07900
H405        H  0.88004296  0.56404317  0.75696691     0.06800
N406        N  0.71593326  0.82992201  0.90178163    -0.27600
N407        N  0.72249257  0.84471671  0.87999393    -0.35500
C408        C  0.70048601  0.84651614  0.86350173     0.00700
C409        C  0.67903937  0.83195749  0.87540127     0.06800
C410        C  0.68966603  0.82182430  0.89972415    -0.06300
H411        H  0.70058826  0.85645809  0.84365495     0.07400
H412        H  0.67936476  0.80889653  0.91459598     0.08600
Cu413      Cu  0.76203399  0.85856209  0.87228082     0.44200
Cu414      Cu  0.74350717  0.81931511  0.93223021     0.42000
Cu415      Cu  0.81467377  0.83518236  0.91991548     0.43900
N416        N  0.80377874  0.86419999  0.86628581    -0.35000
N417        N  0.82287363  0.85476132  0.88299160    -0.29200
C418        C  0.84762486  0.85910646  0.87159085    -0.05300
C419        C  0.84395940  0.87217246  0.84664964     0.06900
C420        C  0.81590688  0.87512777  0.84401190     0.00700
H421        H  0.86681462  0.85270408  0.88056845     0.08300
H422        H  0.80500560  0.88319817  0.82648978     0.07400
N423        N  0.80063332  0.81605902  0.95528972    -0.36400
N424        N  0.77456041  0.81004036  0.95959522    -0.28600
C425        C  0.77201154  0.79758786  0.98407274    -0.03900
C426        C  0.79773676  0.79574815  0.99592374     0.04800
C427        C  0.81538323  0.80774718  0.97702890     0.00400
H428        H  0.75271331  0.79077510  0.99269749     0.07900
H429        H  0.83736024  0.81006396  0.97874551     0.06800
N430        N  0.82162790  0.97922004  0.64152159    -0.27600
N431        N  0.83834525  0.95854669  0.64636005    -0.35500
C432        C  0.83932889  0.94247014  0.62393063     0.00700
C433        C  0.82222576  0.95351454  0.60405392     0.06800
C434        C  0.81148190  0.97688386  0.61605234    -0.06300
H435        H  0.85073121  0.92353731  0.62267709     0.07400
H436        H  0.79699719  0.99105879  0.60717841     0.08600
Cu437      Cu  0.85625355  0.95212238  0.68452604     0.44200
Cu438      Cu  0.81194158  0.00892604  0.67014818     0.42000
Cu439      Cu  0.83619819  0.00026764  0.73899648     0.43900
N440        N  0.86502517  0.94688033  0.72594195    -0.35000
N441        N  0.85675527  0.96361117  0.74560419    -0.29200
C442        C  0.86198668  0.95199790  0.77007063    -0.05300
C443        C  0.87442018  0.92692835  0.76565264     0.06900
C444        C  0.87614341  0.92443435  0.73745282     0.00700
H445        H  0.85612218  0.96067037  0.78960512     0.08300
H446        H  0.88297775  0.90665691  0.72612756     0.07400
N447        N  0.81389282  0.03420943  0.72638458    -0.36400
N448        N  0.80469317  0.03696151  0.70108879    -0.28600
C449        C  0.79073650  0.06055685  0.69907513    -0.03900
C450        C  0.79114877  0.07352169  0.72434104     0.04800
C451        C  0.80612502  0.05615769  0.74117277     0.02800
H452        H  0.78141564  0.06786323  0.68035707     0.07900
H453        H  0.81085870  0.05905805  0.76263258     0.06800
C454        C  0.86493960  0.87848405  0.82569391     0.02800
C455        C  0.86144054  0.90069381  0.80770114    -0.13300
C456        C  0.87992878  0.90525348  0.78608036     0.00300
C457        C  0.90230112  0.88757782  0.78275075    -0.11900
C458        C  0.90607795  0.86532350  0.80067393     0.02800
C459        C  0.88745983  0.86106226  0.82222954    -0.11300
H460        H  0.84377466  0.91387104  0.80996070     0.08400
H461        H  0.91615305  0.89057985  0.76562034     0.05900
H462        H  0.88994803  0.84352633  0.83567711     0.05800
N463        N  0.97882494  0.71856416  0.74660007    -0.27600
N464        N  0.95757657  0.72525214  0.76194634    -0.35500
C465        C  0.93944115  0.70435705  0.76201841     0.00700
C466        C  0.94965136  0.68341740  0.74580214     0.06800
C467        C  0.97474077  0.69321964  0.73642694    -0.06300
H468        H  0.91977139  0.70491328  0.77222719     0.07400
H469        H  0.98886144  0.68294602  0.72282676     0.08600
Cu470      Cu  0.95274402  0.76370226  0.77927600     0.44200
Cu471      Cu  0.01127545  0.74524154  0.73851102     0.42000
Cu472      Cu  0.00128208  0.81634253  0.75902477     0.43900
N473        N  0.94757937  0.80507436  0.78725140    -0.35000
N474        N  0.96451844  0.82452124  0.77862461    -0.29200
C475        C  0.95299442  0.84916281  0.78306886    -0.05300
C476        C  0.92772322  0.84495778  0.79536866     0.06900
C477        C  0.92507920  0.81677371  0.79780963     0.00700
H478        H  0.96190927  0.86859571  0.77688124     0.08300
H479        H  0.90720143  0.80551418  0.80475919     0.07400
N480        N  0.03589919  0.80235833  0.73885753    -0.36400
N481        N  0.03944357  0.77660690  0.73114748    -0.28600
C482        C  0.06338196  0.77470083  0.71761671    -0.03900
C483        C  0.07558886  0.80046281  0.71686384     0.04800
C484        C  0.05757111  0.81744343  0.73065072     0.02800
H485        H  0.07126256  0.75589104  0.70897513     0.07900
H486        H  0.05966391  0.83931270  0.73392266     0.06800
N487        N  0.47376863  0.98464889  0.29804953    -0.27600
N488        N  0.45257361  0.97912265  0.28218274    -0.35500
C489        C  0.43629925  0.00130627  0.28106603     0.00700
C490        C  0.44784194  0.02184702  0.29708925     0.06800
C491        C  0.47164939  0.01043191  0.30745584    -0.06300
H492        H  0.41716851  0.00207778  0.26995064     0.07400
H493        H  0.48640866  0.01997776  0.32097568     0.08600
Cu494      Cu  0.44638641  0.94091058  0.26460131     0.44200
Cu495      Cu  0.50396150  0.95651801  0.30716316     0.42000
Cu496      Cu  0.49420023  0.88662926  0.28429568     0.43900
N497        N  0.44142840  0.89986331  0.25467080    -0.35000
N498        N  0.45789154  0.88000435  0.26290545    -0.29200
C499        C  0.44622610  0.85565404  0.25689312    -0.05300
C500        C  0.42143738  0.86046309  0.24397760     0.06900
C501        C  0.41918210  0.88870517  0.24281665     0.00700
H502        H  0.45454813  0.83594142  0.26268876     0.08300
H503        H  0.40156500  0.90026937  0.23606173     0.07400
N504        N  0.52856641  0.89989385  0.30583705    -0.36400
N505        N  0.53169795  0.92544392  0.31438837    -0.28600
C506        C  0.55552428  0.92770639  0.32792403    -0.03900
C507        C  0.56825570  0.90238399  0.32786897     0.04800
C508        C  0.55056609  0.88522016  0.31357150     0.02800
H509        H  0.56312930  0.94659698  0.33679595     0.07900
H510        H  0.55327744  0.86360841  0.30936433     0.06800
N511        N  0.21065586  0.87755037  0.13587300    -0.27600
N512        N  0.21747560  0.86419555  0.15842896    -0.35500
C513        C  0.19602223  0.86412097  0.17577939     0.00700
C514        C  0.17468368  0.87833265  0.16365223     0.06800
C515        C  0.18476449  0.88652657  0.13832523    -0.06300
H516        H  0.19637885  0.85538637  0.19618258     0.07400
H517        H  0.17425294  0.89850423  0.12293287     0.08600
Cu518      Cu  0.25666024  0.84952980  0.16558727     0.44200
Cu519      Cu  0.23764226  0.88451442  0.10371601     0.42000
Cu520      Cu  0.30935045  0.86800372  0.11630516     0.43900
N521        N  0.29808081  0.84223737  0.17143371    -0.35000
N522        N  0.31753303  0.85007982  0.15417998    -0.29200
C523        C  0.34212118  0.84532051  0.16573571    -0.05300
C524        C  0.33787266  0.83358547  0.19132848     0.06900
C525        C  0.30970956  0.83189780  0.19414154     0.00700
H526        H  0.36160164  0.85055239  0.15644447     0.08300
H527        H  0.29844895  0.82518338  0.21208139     0.07400
N528        N  0.29491522  0.88546863  0.08016366    -0.36400
N529        N  0.26891705  0.89148697  0.07571188    -0.28600
C530        C  0.26661435  0.90348030  0.05098014    -0.03900
C531        C  0.29239634  0.90508929  0.03913976     0.04800
C532        C  0.30980173  0.89334625  0.05826056     0.02800
H533        H  0.24752656  0.91067372  0.04243063     0.07900
H534        H  0.33181204  0.89136902  0.05678975     0.06800
C535        C  0.37127461  0.80195947  0.25386928     0.02800
C536        C  0.39418130  0.81912514  0.25700870    -0.13300
C537        C  0.39930316  0.84050856  0.23837700     0.00300
C538        C  0.38144254  0.84445951  0.21616777    -0.11900
C539        C  0.35836841  0.82744246  0.21277413     0.02800
C540        C  0.35358066  0.80604423  0.23158170    -0.11300
H541        H  0.40748607  0.81643614  0.27456388     0.08400
H542        H  0.38488536  0.86149465  0.20224462     0.05900
H543        H  0.33553140  0.79318896  0.22942664     0.05800
N544        N  0.32326322  0.72463404  0.40263765    -0.27600
N545        N  0.33813998  0.74648693  0.39630056    -0.35500
C546        C  0.33959958  0.76302179  0.41832028     0.00700
C547        C  0.32472710  0.75110260  0.43951792     0.06800
C548        C  0.31476891  0.72670190  0.42875919    -0.06300
H549        H  0.34947915  0.78295100  0.41834418     0.07400
H550        H  0.30167450  0.71180719  0.43884326     0.08600
Cu551      Cu  0.35237643  0.75455411  0.35693785     0.44200
Cu552      Cu  0.31305020  0.69411397  0.37496084     0.42000
Cu553      Cu  0.33100866  0.70626186  0.30423416     0.43900
N554        N  0.35771360  0.76111778  0.31516458    -0.35000
N555        N  0.34883520  0.74408778  0.29600775    -0.29200
C556        C  0.35262727  0.75571593  0.27124520    -0.05300
C557        C  0.36483830  0.78112061  0.27496087     0.06900
C558        C  0.36782230  0.78383754  0.30304982     0.00700
H559        H  0.34667115  0.74645551  0.25199669     0.08300
H560        H  0.37554202  0.80158064  0.31395500     0.07400
N561        N  0.31194744  0.67067809  0.31790362    -0.36400
N562        N  0.30480184  0.66660585  0.34373084    -0.28600
C563        C  0.29186172  0.64228705  0.34587845    -0.03900
C564        C  0.29095467  0.63031075  0.32016674     0.04800
C565        C  0.30399934  0.64888813  0.30293674     0.02800
H566        H  0.28397376  0.63387886  0.36486982     0.07900
H567        H  0.30699225  0.64703846  0.28104349     0.06800
N568        N  0.32417003  0.98389870  0.90003330    -0.27600
N569        N  0.33957537  0.96246652  0.89419399    -0.35500
C570        C  0.33914339  0.94497461  0.91555464     0.00700
C571        C  0.32246795  0.95579130  0.93580616     0.06800
C572        C  0.31336780  0.98054376  0.92520653    -0.06300
H573        H  0.34923258  0.92526390  0.91575916     0.07400
H574        H  0.29957641  0.99491825  0.93484951     0.08600
Cu575      Cu  0.35744569  0.95631781  0.85613324     0.44200
Cu576      Cu  0.31716101  0.01574874  0.87268377     0.42000
Cu577      Cu  0.34075697  0.00580004  0.80289979     0.43900
N578        N  0.36582068  0.95048863  0.81487397    -0.35000
N579        N  0.35856863  0.96781383  0.79530494    -0.29200
C580        C  0.36298191  0.95596006  0.77078190    -0.05300
C581        C  0.37386982  0.93011966  0.77516631     0.06900
C582        C  0.37547948  0.92742781  0.80334924     0.00700
H583        H  0.35782150  0.96511960  0.75125108     0.08300
H584        H  0.38139507  0.90928274  0.81466887     0.07400
N585        N  0.32062501  0.04096407  0.81612520    -0.36400
N586        N  0.31172416  0.04423234  0.84150798    -0.28600
C587        C  0.29829558  0.06817753  0.84325654    -0.03900
C588        C  0.29872826  0.08079461  0.81776060     0.04800
C589        C  0.31322545  0.06293058  0.80108859     0.02800
H590        H  0.28881228  0.07570790  0.86180315     0.07900
H591        H  0.31735296  0.06524912  0.77941369     0.06800
N592        N  0.27436848  0.81440538  0.58026700    -0.27600
N593        N  0.30013246  0.82201764  0.58394264    -0.35500
C594        C  0.31496496  0.81410584  0.56208705     0.00700
C595        C  0.29774076  0.80062269  0.54388981     0.06800
C596        C  0.27214989  0.80128197  0.55616528    -0.06300
H597        H  0.33681629  0.81728527  0.56001455     0.07400
H598        H  0.25321281  0.79285729  0.54824431     0.08600
Cu599      Cu  0.31410929  0.84142155  0.61925256     0.44200
Cu600      Cu  0.24326403  0.82136042  0.60825276     0.42000
Cu601      Cu  0.26161556  0.85874162  0.66914443     0.43900
N602        N  0.32231106  0.85956610  0.65696925    -0.35000
N603        N  0.30304121  0.86692066  0.67452883    -0.29200
C604        C  0.31494522  0.87725587  0.69714299    -0.05300
C605        C  0.34306714  0.87601303  0.69389471     0.06900
C606        C  0.34701104  0.86458971  0.66821176     0.00700
H607        H  0.30394849  0.88357319  0.71531977     0.08300
H608        H  0.36638565  0.85961791  0.65869504     0.07400
N609        N  0.22252260  0.84343255  0.66189809    -0.36400
N610        N  0.21595645  0.82940030  0.63969130    -0.28600
C611        C  0.18996295  0.82043462  0.64197662    -0.03900
C612        C  0.17953828  0.82922967  0.66689079     0.04800
C613        C  0.20081429  0.84385667  0.67890442     0.02800
H614        H  0.17968670  0.80796045  0.62678186     0.07900
H615        H  0.20098897  0.85310126  0.69904550     0.06800
C616        C  0.36392771  0.88191102  0.71503898     0.02800
C617        C  0.36059253  0.90416262  0.73299760    -0.13300
C618        C  0.37894998  0.90835403  0.75475567     0.00300
C619        C  0.40093974  0.89024782  0.75828304    -0.11900
C620        C  0.40453319  0.86793750  0.74048077     0.02800
C621        C  0.38606166  0.86400241  0.71878251    -0.11300
H622        H  0.34318430  0.91766005  0.73057688     0.08400
H623        H  0.41471716  0.89302434  0.77546831     0.05900
H624        H  0.38838199  0.84644019  0.70539116     0.05800
N625        N  0.53769728  0.78201611  0.81266156    -0.27600
N626        N  0.53470370  0.80743090  0.80367983    -0.35500
C627        C  0.55657480  0.82245439  0.81149364     0.00700
C628        C  0.57410045  0.80569037  0.82630458     0.06800
C629        C  0.56136515  0.78019097  0.82652504    -0.06300
H630        H  0.55918709  0.84409422  0.80715150     0.07400
H631        H  0.56875391  0.76150416  0.83588560     0.08600
Cu632      Cu  0.50031139  0.82033553  0.78221878     0.44200
Cu633      Cu  0.50961610  0.75071983  0.80603153     0.42000
Cu634      Cu  0.45134785  0.76647430  0.76397199     0.43900
N635        N  0.46311660  0.82744169  0.76278533    -0.35000
N636        N  0.44598945  0.80777452  0.75511264    -0.29200
C637        C  0.42333943  0.81925136  0.74453886    -0.05300
C638        C  0.42609968  0.84749429  0.74597929     0.06900
C639        C  0.45155920  0.85194992  0.75770230     0.00700
H640        H  0.40534378  0.80787266  0.73819743     0.08300
H641        H  0.46060141  0.87153313  0.76309001     0.07400
N642        N  0.45777530  0.72815265  0.78137259    -0.36400
N643        N  0.47895747  0.72257079  0.79720361    -0.28600
C644        C  0.47645317  0.69678418  0.80678094    -0.03900
C645        C  0.45245792  0.68545021  0.79650253     0.04800
C646        C  0.44120541  0.70602512  0.78040768     0.02800
H647        H  0.49101001  0.68718814  0.82041257     0.07900
H648        H  0.42194802  0.70538991  0.76949411     0.06800
C649        C  0.33507669  0.78400101  0.47773099    -0.13700
C650        C  0.31842198  0.76317859  0.46666609     0.08500
C651        C  0.29519961  0.75450139  0.48144253    -0.13700
C652        C  0.28852044  0.76667974  0.50646178    -0.13700
C653        C  0.30507663  0.78759687  0.51746819     0.08500
C654        C  0.32856630  0.79596612  0.50295509    -0.13700
H655        H  0.35320437  0.79102656  0.46695208     0.12500
H656        H  0.28178814  0.73867477  0.47346738     0.12500
H657        H  0.27044269  0.75953590  0.51724259     0.12500
H658        H  0.34168388  0.81209656  0.51083709     0.12500
C659        C  0.28259729  0.93711500  0.00002647    -0.13700
C660        C  0.29990879  0.91780540  0.01249782     0.08500
C661        C  0.32465216  0.91105547  0.99946333    -0.13700
C662        C  0.33190266  0.92329587  0.97451313    -0.13700
C663        C  0.31474536  0.94282620  0.96222806     0.08500
C664        C  0.29002621  0.94962882  0.97526456    -0.13700
H665        H  0.26348367  0.94294381  0.00958074     0.12500
H666        H  0.33835732  0.89612847  0.00839911     0.12500
H667        H  0.35113431  0.91770151  0.96502604     0.12500
H668        H  0.27623037  0.96440133  0.96619827     0.12500
C669        C  0.11664819  0.83137065  0.71265179    -0.13700
C670        C  0.10185385  0.80826413  0.70366647     0.08500
C671        C  0.11242349  0.79258554  0.68200523    -0.13700
C672        C  0.13734913  0.79972088  0.66971469    -0.13700
C673        C  0.15246206  0.82248963  0.67906008     0.08500
C674        C  0.14177817  0.83830141  0.70060141    -0.13700
H675        H  0.10907851  0.84381879  0.72935624     0.12500
H676        H  0.10137370  0.77484174  0.67441711     0.12500
H677        H  0.14501134  0.78698188  0.65328876     0.12500
H678        H  0.15278174  0.85609256  0.70813925     0.12500
C679        C  0.64073484  0.84284233  0.84279272    -0.13700
C680        C  0.65172169  0.82602669  0.86344588     0.08500
C681        C  0.63665923  0.80295126  0.87215697    -0.13700
C682        C  0.61146851  0.79653070  0.86019416    -0.13700
C683        C  0.60055066  0.81313956  0.83936057     0.08500
C684        C  0.61532419  0.83655768  0.83098443    -0.13700
H685        H  0.65174319  0.86087632  0.83575298     0.12500
H686        H  0.64453581  0.78941961  0.88785749     0.12500
H687        H  0.60054646  0.77852801  0.86741296     0.12500
H688        H  0.60754842  0.84975018  0.81493894     0.12500
C689        C  0.91480580  0.64630765  0.75519243    -0.13700
C690        C  0.93600342  0.65704257  0.73873232     0.08500
C691        C  0.94399139  0.64238487  0.71530464    -0.13700
C692        C  0.93115592  0.61761360  0.70849026    -0.13700
C693        C  0.91018112  0.60669229  0.72507485     0.08500
C694        C  0.90215532  0.62130822  0.74853355    -0.13700
H695        H  0.90821178  0.65700581  0.77344962     0.12500
H696        H  0.96002574  0.65012723  0.70200071     0.12500
H697        H  0.93803683  0.60683844  0.69039150     0.12500
H698        H  0.88595979  0.61355310  0.76164805     0.12500
C699        C  0.77614071  0.14085546  0.76044860    -0.13700
C700        C  0.75598859  0.15230300  0.74340484     0.08500
C701        C  0.74704287  0.13730170  0.72050389    -0.13700
C702        C  0.75830909  0.11169837  0.71450429    -0.13700
C703        C  0.77866564  0.10033438  0.73136145     0.08500
C704        C  0.78725389  0.11508435  0.75457720    -0.13700
H705        H  0.78331816  0.15176708  0.77838208     0.12500
H706        H  0.73167702  0.14551404  0.70683049     0.12500
H707        H  0.75095117  0.10082751  0.69663179     0.12500
H708        H  0.80294598  0.10701062  0.76795828     0.12500
C709        C  0.82535140  0.91162273  0.53838241    -0.13700
C710        C  0.80128516  0.91982267  0.52489942     0.08500
C711        C  0.78439453  0.93931084  0.53758627    -0.13700
C712        C  0.79135171  0.95034258  0.56308218    -0.13700
C713        C  0.81527767  0.94201680  0.57671517     0.08500
C714        C  0.83219340  0.92248561  0.56407756    -0.13700
H715        H  0.83876126  0.89654466  0.52927355     0.12500
H716        H  0.76584155  0.94630307  0.52774194     0.12500
H717        H  0.77766733  0.96513731  0.57222066     0.12500
H718        H  0.85083437  0.91571089  0.57391871     0.12500
C719        C  0.63615681  0.86759756  0.34224052    -0.13700
C720        C  0.64662929  0.88372030  0.36375395     0.08500
C721        C  0.63085237  0.90566021  0.37356272    -0.13700
C722        C  0.60542616  0.91157326  0.36194646    -0.13700
C723        C  0.59499981  0.89555023  0.34040174     0.08500
C724        C  0.61052678  0.87335525  0.33079386    -0.13700
H725        H  0.64766323  0.85042901  0.33429497     0.12500
H726        H  0.63827350  0.91865371  0.38993753     0.12500
H727        H  0.59387225  0.92866001  0.37001265     0.12500
H728        H  0.60310251  0.86071310  0.31412713     0.12500
C729        C  0.83526267  0.77980890  0.06217501    -0.13700
C730        C  0.81719200  0.76117618  0.07488756     0.08500
C731        C  0.79286008  0.75388097  0.06130155    -0.13700
C732        C  0.78661696  0.76509810  0.03571741    -0.13700
C733        C  0.80465516  0.78371138  0.02296138     0.08500
C734        C  0.82913780  0.79083698  0.03639543    -0.13700
H735        H  0.85423565  0.78574090  0.07203636     0.12500
H736        H  0.77833273  0.73980040  0.07056693     0.12500
H737        H  0.76769900  0.75897156  0.02587926     0.12500
H738        H  0.84340326  0.80525073  0.02721597     0.12500
C739        C  0.10838641  0.91524311  0.17958923    -0.13700
C740        C  0.09671215  0.89833065  0.19992407     0.08500
C741        C  0.11078458  0.87453456  0.20796129    -0.13700
C742        C  0.13612020  0.86804424  0.19621782    -0.13700
C743        C  0.14771553  0.88496916  0.17588543     0.08500
C744        C  0.13349546  0.90854608  0.16759220    -0.13700
H745        H  0.09804936  0.93359293  0.17270141     0.12500
H746        H  0.10248134  0.86113144  0.22365619     0.12500
H747        H  0.14653636  0.84965578  0.20292132     0.12500
H748        H  0.14196807  0.92211983  0.15212702     0.12500
C749        C  0.77350749  0.56461578  0.26082853    -0.13700
C750        C  0.75212908  0.55350954  0.24497918     0.08500
C751        C  0.74187788  0.56897283  0.22293567    -0.13700
C752        C  0.75310677  0.59461907  0.21652864    -0.13700
C753        C  0.77469314  0.60554742  0.23213875     0.08500
C754        C  0.78457388  0.59043734  0.25456060    -0.13700
H755        H  0.78174277  0.55339744  0.27808818     0.12500
H756        H  0.72554156  0.56110738  0.21016292     0.12500
H757        H  0.74483247  0.60587668  0.19930382     0.12500
H758        H  0.80126788  0.59826580  0.26691824     0.12500
C759        C  0.90858091  0.09140564  0.25271934    -0.13700
C760        C  0.91677668  0.10606371  0.22923311     0.08500
C761        C  0.93719973  0.09491911  0.21233256    -0.13700
C762        C  0.94881692  0.06950759  0.21844430    -0.13700
C763        C  0.94016386  0.05447372  0.24151053     0.08500
C764        C  0.92004207  0.06579213  0.25870825    -0.13700
H765        H  0.89285720  0.09938376  0.26613282     0.12500
H766        H  0.94426825  0.10579330  0.19427727     0.12500
H767        H  0.96415447  0.06142897  0.20466197     0.12500
H768        H  0.91309072  0.05486994  0.27678646     0.12500
C769        C  0.87226874  0.29811732  0.03778717    -0.13700
C770        C  0.89421613  0.28753886  0.02250611     0.08500
C771        C  0.90932340  0.26565258  0.03345817    -0.13700
C772        C  0.90253669  0.25444796  0.05898267    -0.13700
C773        C  0.88059946  0.26499551  0.07433007     0.08500
C774        C  0.86561279  0.28705573  0.06346781    -0.13700
H775        H  0.86033484  0.31509751  0.03002447     0.12500
H776        H  0.92622440  0.25686084  0.02216784     0.12500
H777        H  0.91473229  0.23766243  0.06670996     0.12500
H778        H  0.84852502  0.29564471  0.07462168     0.12500
C779        C  0.86844218  0.41311880  0.53503624    -0.13700
C780        C  0.88974379  0.42465324  0.51934970     0.08500
C781        C  0.90422697  0.44727567  0.52982688    -0.13700
C782        C  0.89766053  0.45807069  0.55551045    -0.13700
C783        C  0.87661096  0.44632423  0.57147190     0.08500
C784        C  0.86204298  0.42373737  0.56088100    -0.13700
H785        H  0.85701119  0.39556305  0.52756869     0.12500
H786        H  0.92060189  0.45675664  0.51812492     0.12500
H787        H  0.90946762  0.47536074  0.56294015     0.12500
H788        H  0.84559368  0.41426545  0.57245345     0.12500
C789        C  0.56268150  0.29815838  0.67092080    -0.13700
C790        C  0.54701141  0.32012335  0.68088643     0.08500
C791        C  0.55757335  0.33603478  0.70250688    -0.13700
C792        C  0.58303395  0.32987119  0.71409395    -0.13700
C793        C  0.59829625  0.30748418  0.70451093     0.08500
C794        C  0.58794115  0.29184527  0.68267722    -0.13700
H795        H  0.55526131  0.28536574  0.65439720     0.12500
H796        H  0.54621546  0.35326011  0.71053519     0.12500
H797        H  0.59047017  0.34226893  0.73093817     0.12500
H798        H  0.59936583  0.27467304  0.67459929     0.12500
C799        C  0.05842491  0.33868749  0.83938535    -0.13700
C800        C  0.04679474  0.32100033  0.85908562     0.08500
C801        C  0.06123057  0.29729833  0.86669210    -0.13700
C802        C  0.08633112  0.29106579  0.85444674    -0.13700
C803        C  0.09781730  0.30853529  0.83452333     0.08500
C804        C  0.08375508  0.33261243  0.82736405    -0.13700
H805        H  0.04797624  0.35723665  0.83322355     0.12500
H806        H  0.05288910  0.28312460  0.88166846     0.12500
H807        H  0.09676443  0.27253898  0.86070131     0.12500
H808        H  0.09202493  0.34648939  0.81205752     0.12500
C809        C  0.25133961  0.14227397  0.81872578    -0.13700
C810        C  0.26017592  0.15727469  0.79570311     0.08500
C811        C  0.28173409  0.14678422  0.77976497    -0.13700
C812        C  0.29412231  0.12183625  0.78671606    -0.13700
C813        C  0.28547036  0.10704523  0.80997020     0.08500
C814        C  0.26392158  0.11757074  0.82585184    -0.13700
H815        H  0.23497380  0.14980768  0.83160693     0.12500
H816        H  0.28894687  0.15775318  0.76181182     0.12500
H817        H  0.31073119  0.11436337  0.77410366     0.12500
H818        H  0.25652065  0.10661901  0.84372823     0.12500
C819        C  0.41995031  0.64680335  0.78582464    -0.13700
C820        C  0.44075724  0.65787667  0.80243279     0.08500
C821        C  0.45005241  0.64246637  0.82494829    -0.13700
C822        C  0.43855722  0.61678940  0.83091242    -0.13700
C823        C  0.41773225  0.60579590  0.81432718     0.08500
C824        C  0.40868081  0.62097857  0.79161690    -0.13700
H825        H  0.41243096  0.65796791  0.76820444     0.12500
H826        H  0.46590812  0.65035907  0.83830261     0.12500
H827        H  0.44611716  0.60548322  0.84843940     0.12500
H828        H  0.39254943  0.61312165  0.77855050     0.12500
C829        C  0.08676749  0.41304384  0.35977517    -0.13700
C830        C  0.09751945  0.39661119  0.33878886     0.08500
C831        C  0.08231301  0.37383901  0.32969935    -0.13700
C832        C  0.05650415  0.36807119  0.34090229    -0.13700
C833        C  0.04555080  0.38478501  0.36163863     0.08500
C834        C  0.06115833  0.40714259  0.37114547    -0.13700
H835        H  0.09813120  0.43054949  0.36745657     0.12500
H836        H  0.09005494  0.36085026  0.31349276     0.12500
H837        H  0.04517388  0.35053881  0.33326304     0.12500
H838        H  0.05343035  0.42055903  0.38697354     0.12500
C839        C  0.24593425  0.56685158  0.32240136    -0.13700
C840        C  0.25548903  0.55193164  0.29972338     0.08500
C841        C  0.27650277  0.56326750  0.28348213    -0.13700
C842        C  0.28777931  0.58892695  0.28985933    -0.13700
C843        C  0.27852773  0.60356508  0.31282465     0.08500
C844        C  0.25744264  0.59230204  0.32896925    -0.13700
H845        H  0.22992421  0.55868108  0.33547623     0.12500
H846        H  0.28417849  0.55239350  0.26576136     0.12500
H847        H  0.30408746  0.59704868  0.27710371     0.12500
H848        H  0.24969336  0.60321296  0.34664073     0.12500
C849        C  0.40618345  0.08731787  0.29153859    -0.13700
C850        C  0.41647475  0.10275266  0.31358516     0.08500
C851        C  0.43704906  0.09134829  0.33008991    -0.13700
C852        C  0.44717294  0.06517341  0.32468379    -0.13700
C853        C  0.43689465  0.04963876  0.30269963     0.08500
C854        C  0.41619445  0.06097291  0.28622903    -0.13700
H855        H  0.39018336  0.09543575  0.27855446     0.12500
H856        H  0.44560374  0.10272497  0.34710883     0.12500
H857        H  0.46291567  0.05711021  0.33798761     0.12500
H858        H  0.40788446  0.04966404  0.26904784     0.12500
C859        C  0.36705458  0.28607809  0.47602982    -0.13700
C860        C  0.38422238  0.26627657  0.46417488     0.08500
C861        C  0.40763920  0.25795115  0.47862018    -0.13700
C862        C  0.41373920  0.26904205  0.50427410    -0.13700
C863        C  0.39652267  0.28867887  0.51628770     0.08500
C864        C  0.37307678  0.29707819  0.50186207    -0.13700
H865        H  0.34879681  0.29289243  0.46552048     0.12500
H866        H  0.42152117  0.24299428  0.47007106     0.12500
H867        H  0.43185974  0.26188265  0.51476579     0.12500
H868        H  0.35944407  0.31228847  0.51038824     0.12500
C869        C  0.39905913  0.45460296  0.98031732    -0.13700
C870        C  0.37635400  0.44479204  0.96553424     0.08500
C871        C  0.36052214  0.42335888  0.97677715    -0.13700
C872        C  0.36732350  0.41201927  0.00227640    -0.13700
C873        C  0.39030747  0.42164515  0.01679464     0.08500
C874        C  0.40601958  0.44308608  0.00554408    -0.13700
H875        H  0.41189381  0.47088354  0.97222814     0.12500
H876        H  0.34282815  0.41543684  0.96596260     0.12500
H877        H  0.35486405  0.39543301  0.01037974     0.12500
H878        H  0.42366436  0.45117674  0.01631042     0.12500
C879        C  0.56126292  0.40678062  0.16835493    -0.13700
C880        C  0.54548322  0.38427916  0.17734961     0.08500
C881        C  0.55575283  0.36775685  0.19864299    -0.13700
C882        C  0.58097033  0.37387393  0.21091668    -0.13700
C883        C  0.59633144  0.39681219  0.20236539     0.08500
C884        C  0.58629741  0.41303461  0.18079074    -0.13700
H885        H  0.55406333  0.42003512  0.15210285     0.12500
H886        H  0.54431564  0.35010145  0.20592570     0.12500
H887        H  0.58811076  0.36098948  0.22751013     0.12500
H888        H  0.59777679  0.43064577  0.17344959     0.12500
loop_ 
_geom_bond_atom_site_label_1 
_geom_bond_atom_site_label_2 
_geom_bond_distance 
_geom_bond_site_symmetry_2 
_ccdc_geom_bond_type 
N1            N2   1.321       .  A
N1            C5   1.345       .  A
N1           Cu9   2.079       .  S
N2            C3   1.345       .  A
N2           Cu8   2.075       .  S
C3            C4   1.388       .  A
C3            H6   1.081       .  S
C4            C5   1.389       .  A
C4          C880   1.487       .  S
C5            H7   1.081       .  S
Cu8          N11   2.075       .  S
Cu9          N19   2.079       .  S
Cu10         N12   2.070       .  S
Cu10         N18   2.069       .  S
N11          N12   1.322       .  A
N11          C15   1.344       .  A
N12          C13   1.345       .  A
C13          C14   1.384       .  A
C13          H16   1.082       .  S
C14          C15   1.384       .  A
C14          C49   1.476       .  S
C15          H17   1.082       .  S
N18          N19   1.322       .  A
N18          C22   1.345       .  A
N19          C20   1.344       .  A
C20          C21   1.387       .  A
C20          H23   1.082       .  S
C21          C22   1.385       .  A
C21         C873   1.481       .  S
C22          H24   1.082       .  S
N25          N26   1.320       .  A
N25          C29   1.343       .  A
N25         Cu33   2.068       .  S
N26          C27   1.346       .  A
N26         Cu32   2.075       .  S
C27          C28   1.388       .  A
C27          H30   1.082       .  S
C28          C29   1.387       .  A
C28         C860   1.485       .  S
C29          H31   1.081       .  S
Cu32         N35   2.074       .  S
Cu33         N43   2.068       .  S
Cu34         N36   2.078       .  S
Cu34         N42   2.078       .  S
N35          N36   1.323       .  A
N35          C39   1.344       .  A
N36          C37   1.346       .  A
C37          C38   1.385       .  A
C37          H40   1.082       .  S
C38          C39   1.383       .  A
C38          C53   1.476       .  S
C39          H41   1.082       .  S
N42          N43   1.321       .  A
N42          C46   1.347       .  A
N43          C44   1.342       .  A
C44          C45   1.385       .  A
C44          H47   1.081       .  S
C45          C46   1.388       .  A
C45         C850   1.482       .  S
C46          H48   1.082       .  S
C49          C50   1.404       .  A
C49          C54   1.403       .  A
C50          C51   1.404       .  A
C50          H55   1.084       .  S
C51          C52   1.404       .  A
C51          C71   1.477       .  S
C52          C53   1.404       .  A
C52          H56   1.084       .  S
C53          C54   1.403       .  A
C54          H57   1.084       .  S
N58          N59   1.322       .  A
N58          C62   1.342       .  A
N58         Cu66   2.065       .  S
N59          C60   1.346       .  A
N59         Cu65   2.078       .  S
C60          C61   1.387       .  A
C60          H63   1.082       .  S
C61          C62   1.384       .  A
C61         C830   1.479       .  S
C62          H64   1.082       .  S
Cu65         N68   2.079       .  S
Cu66         N76   2.064       .  S
Cu67         N69   2.075       .  S
Cu67         N75   2.074       .  S
N68          N69   1.323       .  A
N68          C72   1.346       .  A
N69          C70   1.344       .  A
C70          C71   1.383       .  A
C70          H73   1.082       .  S
C71          C72   1.385       .  A
C72          H74   1.082       .  S
N75          N76   1.320       .  A
N75          C79   1.345       .  A
N76          C77   1.343       .  A
C77          C78   1.386       .  A
C77          H80   1.081       .  S
C78          C79   1.387       .  A
C78         C840   1.481       .  S
C79          H81   1.082       .  S
N82          N83   1.321       .  A
N82          C86   1.342       .  A
N82         Cu90   2.067       .  S
N83          C84   1.347       .  A
N83         Cu89   2.075       .  S
C84          C85   1.388       .  A
C84          H87   1.082       .  S
C85          C86   1.385       .  A
C85         C870   1.482       .  S
C86          H88   1.081       .  S
Cu89         N92   2.074       .  S
Cu90        N100   2.068       .  S
Cu91         N93   2.078       .  S
Cu91         N99   2.077       .  S
N92          N93   1.323       .  A
N92          C96   1.343       .  A
N93          C94   1.346       .  A
C94          C95   1.385       .  A
C94          H97   1.082       .  S
C95          C96   1.382       .  A
C95         C130   1.475       .  S
C96          H98   1.082       .  S
N99         N100   1.321       .  A
N99         C103   1.345       .  A
N100        C101   1.344       .  A
C101        C102   1.385       .  A
C101        H104   1.082       .  S
C102        C103   1.387       .  A
C102        C823   1.480       .  S
C103        H105   1.082       .  S
N106        N107   1.321       .  A
N106        C110   1.345       .  A
N106       Cu114   2.081       .  S
N107        C108   1.346       .  A
N107       Cu113   2.073       .  S
C108        C109   1.387       .  A
C108        H111   1.082       .  S
C109        C110   1.388       .  A
C109        C810   1.485       .  S
C110        H112   1.082       .  S
Cu113       N116   2.073       .  S
Cu114       N124   2.081       .  S
Cu115       N117   2.079       .  S
Cu115       N123   2.079       .  S
N116        N117   1.322       .  A
N116        C120   1.344       .  A
N117        C118   1.346       .  A
C118        C119   1.386       .  A
C118        H121   1.082       .  S
C119        C120   1.383       .  A
C119        C134   1.478       .  S
C120        H122   1.082       .  S
N123        N124   1.322       .  A
N123        C127   1.347       .  A
N124        C125   1.345       .  A
C125        C126   1.387       .  A
C125        H128   1.082       .  S
C126        C127   1.387       .  A
C126        C803   1.484       .  S
C127        H129   1.082       .  S
C130        C131   1.404       .  A
C130        C135   1.404       .  A
C131        C132   1.403       .  A
C131        H136   1.084       .  S
C132        C133   1.404       .  A
C132        C152   1.476       .  S
C133        C134   1.404       .  A
C133        H137   1.084       .  S
C134        C135   1.403       .  A
C135        H138   1.084       .  S
N139        N140   1.321       .  A
N139        C143   1.343       .  A
N139       Cu147   2.071       .  S
N140        C141   1.346       .  A
N140       Cu146   2.075       .  S
C141        C142   1.388       .  A
C141        H144   1.081       .  S
C142        C143   1.387       .  A
C142        C790   1.485       .  S
C143        H145   1.081       .  S
Cu146       N149   2.075       .  S
Cu147       N157   2.072       .  S
Cu148       N150   2.078       .  S
Cu148       N156   2.078       .  S
N149        N150   1.323       .  A
N149        C153   1.345       .  A
N150        C151   1.346       .  A
C151        C152   1.384       .  A
C151        H154   1.082       .  S
C152        C153   1.383       .  A
C153        H155   1.082       .  S
N156        N157   1.321       .  A
N156        C160   1.347       .  A
N157        C158   1.343       .  A
C158        C159   1.387       .  A
C158        H161   1.081       .  S
C159        C160   1.389       .  A
C159        C863   1.486       .  S
C160        H162   1.081       .  S
N163        N164   1.321       .  A
N163        C167   1.343   1_655  A
N163       Cu171   2.070       .  S
N164        C165   1.345       .  A
N164       Cu170   2.074       .  S
C165        C166   1.388   1_655  A
C165        H168   1.081       .  S
C166        C167   1.387       .  A
C166        C833   1.483       .  S
C167        H169   1.081       .  S
Cu170       N173   2.074       .  S
Cu171       N181   2.071       .  S
Cu172       N174   2.072       .  S
Cu172       N180   2.072       .  S
N173        N174   1.323       .  A
N173        C177   1.345       .  A
N174        C175   1.344       .  A
C175        C176   1.383       .  A
C175        H178   1.082       .  S
C176        C177   1.384       .  A
C176        C215   1.475       .  S
C177        H179   1.082       .  S
N180        N181   1.321       .  A
N180        C184   1.345       .  A
N181        C182   1.344       .  A
C182        C183   1.386       .  A
C182        H185   1.082       .  S
C183        C184   1.386       .  A
C183        C780   1.480       .  S
C184        H186   1.082       .  S
N187        N188   1.321       .  A
N187        C191   1.344       .  A
N187       Cu195   2.070       .  S
N188        C189   1.346       .  A
N188       Cu194   2.076       .  S
C189        C190   1.388       .  A
C189        H192   1.081       .  S
C190        C191   1.387       .  A
C190        C773   1.486       .  S
C191        H193   1.081       .  S
Cu194       N197   2.076       .  S
Cu195       N205   2.070       .  S
Cu196       N198   2.077       .  S
Cu196       N204   2.077       .  S
N197        N198   1.323       .  A
N197        C201   1.345       .  A
N198        C199   1.345       .  A
C199        C200   1.384       .  A
C199        H202   1.082       .  S
C200        C201   1.383       .  A
C200        C213   1.476       .  S
C201        H203   1.082       .  S
N204        N205   1.321       .  A
N204        C208   1.347       .  A
N205        C206   1.342       .  A
C206        C207   1.385       .  A
C206        H209   1.081       .  S
C207        C208   1.388       .  A
C207        C760   1.483       .  S
C208        H210   1.082       .  S
C211        C212   1.405       .  A
C211        C216   1.403       .  A
C211        C233   1.476       .  S
C212        C213   1.404       .  A
C212        H217   1.084       .  S
C213        C214   1.404       .  A
C214        C215   1.402       .  A
C214        H218   1.084       .  S
C215        C216   1.403       .  A
C216        H219   1.084       .  S
N220        N221   1.320       .  A
N220        C224   1.343       .  A
N220       Cu228   2.068       .  S
N221        C222   1.346       .  A
N221       Cu227   2.075       .  S
C222        C223   1.388       .  A
C222        H225   1.081       .  S
C223        C224   1.386       .  A
C223        C750   1.484       .  S
C224        H226   1.081       .  S
Cu227       N230   2.075       .  S
Cu228       N238   2.069       .  S
Cu229       N231   2.079       .  S
Cu229       N237   2.079       .  S
N230        N231   1.323       .  A
N230        C234   1.344       .  A
N231        C232   1.346       .  A
C232        C233   1.384       .  A
C232        H235   1.082       .  S
C233        C234   1.383       .  A
C234        H236   1.082       .  S
N237        N238   1.321       .  A
N237        C241   1.347       .  A
N238        C239   1.343       .  A
C239        C240   1.385       .  A
C239        H242   1.082       .  S
C240        C241   1.388       .  A
C240        C883   1.483       .  S
C241        H243   1.082       .  S
N244        N245   1.320       .  A
N244        C248   1.344   1_565  A
N244       Cu252   2.073   1_655  S
N245        C246   1.345   1_565  A
N245       Cu251   2.071       .  S
C246        C247   1.387       .  A
C246        H249   1.081       .  S
C247        C248   1.388       .  A
C247        C763   1.484       .  S
C248        H250   1.082       .  S
Cu251       N254   2.071       .  S
Cu252       N262   2.073       .  S
Cu253       N255   2.084       .  S
Cu253       N261   2.084   1_655  S
N254        N255   1.323       .  A
N254        C258   1.344       .  A
N255        C256   1.347       .  A
C256        C257   1.386       .  A
C256        H259   1.082       .  S
C257        C258   1.382       .  A
C257        C292   1.478       .  S
C258        H260   1.082       .  S
N261        N262   1.322       .  A
N261        C265   1.347       .  A
N262        C263   1.344       .  A
C263        C264   1.386       .  A
C263        H266   1.082       .  S
C264        C265   1.389       .  A
C264        C740   1.486       .  S
C265        H267   1.081       .  S
N268        N269   1.321       .  A
N268        C272   1.342       .  A
N268       Cu276   2.067       .  S
N269        C270   1.346       .  A
N269       Cu275   2.077       .  S
C270        C271   1.388       .  A
C270        H273   1.082       .  S
C271        C272   1.385       .  A
C271        C730   1.482       .  S
C272        H274   1.081       .  S
Cu275       N278   2.077       .  S
Cu276       N286   2.067       .  S
Cu277       N279   2.075       .  S
Cu277       N285   2.074       .  S
N278        N279   1.323       .  A
N278        C282   1.345       .  A
N279        C280   1.345       .  A
C280        C281   1.384       .  A
C280        H283   1.082       .  S
C281        C282   1.384       .  A
C281        C294   1.477       .  S
C282        H284   1.082       .  S
N285        N286   1.321       .  A
N285        C289   1.346       .  A
N286        C287   1.343       .  A
C287        C288   1.385       .  A
C287        H290   1.082       .  S
C288        C289   1.387       .  A
C288        C753   1.480       .  S
C289        H291   1.082       .  S
C292        C293   1.403       .  A
C292        C297   1.405       .  A
C293        C294   1.403       .  A
C293        H298   1.083       .  S
C294        C295   1.405       .  A
C295        C296   1.405       .  A
C295        H299   1.083       .  S
C296        C297   1.405       .  A
C296        C314   1.479       .  S
C297        H300   1.084       .  S
N301        N302   1.321       .  A
N301        C305   1.344       .  A
N301       Cu309   2.077       .  S
N302        C303   1.345       .  A
N302       Cu308   2.072       .  S
C303        C304   1.387       .  A
C303        H306   1.082       .  S
C304        C305   1.388       .  A
C304        C720   1.485       .  S
C305        H307   1.081       .  S
Cu308       N311   2.073       .  S
Cu309       N319   2.077       .  S
Cu310       N312   2.083       .  S
Cu310       N318   2.082       .  S
N311        N312   1.322       .  A
N311        C315   1.345       .  A
N312        C313   1.347       .  A
C313        C314   1.386       .  A
C313        H316   1.082       .  S
C314        C315   1.384       .  A
C315        H317   1.082       .  S
N318        N319   1.322       .  A
N318        C322   1.347       .  A
N319        C320   1.345       .  A
C320        C321   1.387       .  A
C320        H323   1.081       .  S
C321        C322   1.388       .  A
C321        C710   1.486       .  S
C322        H324   1.081       .  S
N325        N326   1.321       .  A
N325        C329   1.345   1_655  A
N325       Cu333   2.075       .  S
N326        C327   1.346       .  A
N326       Cu332   2.078       .  S
C327        C328   1.388   1_655  A
C327        H330   1.082       .  S
C328        C329   1.388       .  A
C328        C800   1.486       .  S
C329        H331   1.081       .  S
Cu332       N335   2.077       .  S
Cu333       N343   2.074       .  S
Cu334       N336   2.079       .  S
Cu334       N342   2.079       .  S
N335        N336   1.323       .  A
N335        C339   1.345       .  A
N336        C337   1.346       .  A
C337        C338   1.385       .  A
C337        H340   1.082       .  S
C338        C339   1.384       .  A
C338        C377   1.478       .  S
C339        H341   1.082       .  S
N342        N343   1.322       .  A
N342        C346   1.346       .  A
N343        C344   1.344       .  A
C344        C345   1.386       .  A
C344        H347   1.081       .  S
C345        C346   1.387       .  A
C345        C770   1.483   1_556  S
C346        H348   1.082       .  S
N349        N350   1.321       .  A
N349        C353   1.344       .  A
N349       Cu357   2.070       .  S
N350        C351   1.346       .  A
N350       Cu356   2.080       .  S
C351        C352   1.388       .  A
C351        H354   1.081       .  S
C352        C353   1.386       .  A
C352        C700   1.484       .  S
C353        H355   1.082       .  S
Cu356       N359   2.080       .  S
Cu357       N367   2.070       .  S
Cu358       N360   2.075       .  S
Cu358       N366   2.074       .  S
N359        N360   1.323       .  A
N359        C363   1.345       .  A
N360        C361   1.346       .  A
C361        C362   1.384       .  A
C361        H364   1.082       .  S
C362        C363   1.385       .  A
C362        C373   1.477       .  S
C363        H365   1.082       .  S
N366        N367   1.321       .  A
N366        C370   1.346       .  A
N367        C368   1.343       .  A
C368        C369   1.385       .  A
C368        H371   1.082       .  S
C369        C370   1.386       .  A
C369        C793   1.480       .  S
C370        H372   1.082       .  S
C373        C374   1.405       .  A
C373        C378   1.403       .  A
C374        C375   1.405       .  A
C374        H379   1.084       .  S
C375        C376   1.405       .  A
C375        C395   1.480       .  S
C376        C377   1.405       .  A
C376        H380   1.084       .  S
C377        C378   1.404       .  A
C378        H381   1.084       .  S
N382        N383   1.321       .  A
N382        C386   1.343       .  A
N382       Cu390   2.068       .  S
N383        C384   1.346       .  A
N383       Cu389   2.079       .  S
C384        C385   1.390       .  A
C384        H387   1.081       .  S
C385        C386   1.387       .  A
C385        C783   1.486       .  S
C386        H388   1.081       .  S
Cu389       N392   2.080       .  S
Cu390       N400   2.068       .  S
Cu391       N393   2.086       .  S
Cu391       N399   2.086       .  S
N392        N393   1.324       .  A
N392        C396   1.346       .  A
N393        C394   1.347       .  A
C394        C395   1.385       .  A
C394        H397   1.082       .  S
C395        C396   1.384       .  A
C396        H398   1.082       .  S
N399        N400   1.321       .  A
N399        C403   1.348       .  A
N400        C401   1.343       .  A
C401        C402   1.385       .  A
C401        H404   1.082       .  S
C402        C403   1.390       .  A
C402        C693   1.485       .  S
C403        H405   1.082       .  S
N406        N407   1.321       .  A
N406        C410   1.343       .  A
N406       Cu414   2.072       .  S
N407        C408   1.346       .  A
N407       Cu413   2.075       .  S
C408        C409   1.387       .  A
C408        H411   1.082       .  S
C409        C410   1.387       .  A
C409        C680   1.483       .  S
C410        H412   1.081       .  S
Cu413       N416   2.075       .  S
Cu414       N424   2.072       .  S
Cu415       N417   2.074       .  S
Cu415       N423   2.073       .  S
N416        N417   1.323       .  A
N416        C420   1.344       .  A
N417        C418   1.345       .  A
C418        C419   1.384       .  A
C418        H421   1.082       .  S
C419        C420   1.384       .  A
C419        C454   1.477       .  S
C420        H422   1.082       .  S
N423        N424   1.321       .  A
N423        C427   1.346       .  A
N424        C425   1.344       .  A
C425        C426   1.386       .  A
C425        H428   1.082       .  S
C426        C427   1.387       .  A
C426        C733   1.482   1_556  S
C427        H429   1.082       .  S
N430        N431   1.321       .  A
N430        C434   1.343       .  A
N430       Cu438   2.069   1_565  S
N431        C432   1.348       .  A
N431       Cu437   2.082       .  S
C432        C433   1.390       .  A
C432        H435   1.082       .  S
C433        C434   1.386       .  A
C433        C713   1.486       .  S
C434        H436   1.081       .  S
Cu437       N440   2.081       .  S
Cu438       N448   2.069       .  S
Cu439       N441   2.078   1_545  S
Cu439       N447   2.077       .  S
N440        N441   1.324       .  A
N440        C444   1.345       .  A
N441        C442   1.345       .  A
C442        C443   1.384       .  A
C442        H445   1.082       .  S
C443        C444   1.384       .  A
C443        C456   1.476       .  S
C444        H446   1.082       .  S
N447        N448   1.321       .  A
N447        C451   1.347       .  A
N448        C449   1.343       .  A
C449        C450   1.386       .  A
C449        H452   1.081       .  S
C450        C451   1.389       .  A
C450        C703   1.485       .  S
C451        H453   1.082       .  S
C454        C455   1.403       .  A
C454        C459   1.403       .  A
C455        C456   1.404       .  A
C455        H460   1.083       .  S
C456        C457   1.404       .  A
C457        C458   1.404       .  A
C457        H461   1.084       .  S
C458        C459   1.403       .  A
C458        C476   1.476       .  S
C459        H462   1.083       .  S
N463        N464   1.321       .  A
N463        C467   1.345       .  A
N463       Cu471   2.080   1_655  S
N464        C465   1.345       .  A
N464       Cu470   2.071       .  S
C465        C466   1.386       .  A
C465        H468   1.082       .  S
C466        C467   1.389       .  A
C466        C690   1.485       .  S
C467        H469   1.081       .  S
Cu470       N473   2.070       .  S
Cu471       N481   2.080       .  S
Cu472       N474   2.073   1_455  S
Cu472       N480   2.073       .  S
N473        N474   1.322       .  A
N473        C477   1.343       .  A
N474        C475   1.346       .  A
C475        C476   1.385       .  A
C475        H478   1.082       .  S
C476        C477   1.383       .  A
C477        H479   1.082       .  S
N480        N481   1.322       .  A
N480        C484   1.345       .  A
N481        C482   1.345       .  A
C482        C483   1.387       .  A
C482        H485   1.082       .  S
C483        C484   1.385       .  A
C483        C670   1.481       .  S
C484        H486   1.082       .  S
N487        N488   1.320       .  A
N487        C491   1.342   1_565  A
N487       Cu495   2.066       .  S
N488        C489   1.346   1_565  A
N488       Cu494   2.072       .  S
C489        C490   1.388       .  A
C489        H492   1.081       .  S
C490        C491   1.387       .  A
C490        C853   1.484       .  S
C491        H493   1.081       .  S
Cu494       N497   2.071       .  S
Cu495       N505   2.066       .  S
Cu496       N498   2.082       .  S
Cu496       N504   2.081       .  S
N497        N498   1.323       .  A
N497        C501   1.344       .  A
N498        C499   1.346       .  A
C499        C500   1.386       .  A
C499        H502   1.082       .  S
C500        C501   1.382       .  A
C500        C537   1.476       .  S
C501        H503   1.082       .  S
N504        N505   1.321       .  A
N504        C508   1.347       .  A
N505        C506   1.342       .  A
C506        C507   1.384       .  A
C506        H509   1.082       .  S
C507        C508   1.388       .  A
C507        C723   1.482       .  S
C508        H510   1.082       .  S
N511        N512   1.321       .  A
N511        C515   1.345       .  A
N511       Cu519   2.073       .  S
N512        C513   1.346       .  A
N512       Cu518   2.075       .  S
C513        C514   1.386       .  A
C513        H516   1.082       .  S
C514        C515   1.386       .  A
C514        C743   1.482       .  S
C515        H517   1.082       .  S
Cu518       N521   2.075       .  S
Cu519       N529   2.074       .  S
Cu520       N522   2.082       .  S
Cu520       N528   2.081       .  S
N521        N522   1.322       .  A
N521        C525   1.344       .  A
N522        C523   1.348       .  A
C523        C524   1.387       .  A
C523        H526   1.082       .  S
C524        C525   1.383       .  A
C524        C539   1.480       .  S
C525        H527   1.082       .  S
N528        N529   1.322       .  A
N528        C532   1.346       .  A
N529        C530   1.345       .  A
C530        C531   1.386       .  A
C530        H533   1.081       .  S
C531        C532   1.387       .  A
C531        C660   1.483       .  S
C532        H534   1.082       .  S
C535        C536   1.401       .  A
C535        C540   1.404       .  A
C535        C557   1.476       .  S
C536        C537   1.402       .  A
C536        H541   1.084       .  S
C537        C538   1.405       .  A
C538        C539   1.405       .  A
C538        H542   1.084       .  S
C539        C540   1.406       .  A
C540        H543   1.083       .  S
N544        N545   1.321       .  A
N544        C548   1.344       .  A
N544       Cu552   2.069       .  S
N545        C546   1.346       .  A
N545       Cu551   2.077       .  S
C546        C547   1.387       .  A
C546        H549   1.082       .  S
C547        C548   1.386       .  A
C547        C650   1.483       .  S
C548        H550   1.082       .  S
Cu551       N554   2.078       .  S
Cu552       N562   2.069       .  S
Cu553       N555   2.072       .  S
Cu553       N561   2.071       .  S
N554        N555   1.323       .  A
N554        C558   1.345       .  A
N555        C556   1.345       .  A
C556        C557   1.383       .  A
C556        H559   1.082       .  S
C557        C558   1.385       .  A
C558        H560   1.082       .  S
N561        N562   1.321       .  A
N561        C565   1.345       .  A
N562        C563   1.343       .  A
C563        C564   1.385       .  A
C563        H566   1.082       .  S
C564        C565   1.386       .  A
C564        C843   1.479       .  S
C565        H567   1.082       .  S
N568        N569   1.321       .  A
N568        C572   1.345       .  A
N568       Cu576   2.074   1_565  S
N569        C570   1.345       .  A
N569       Cu575   2.073       .  S
C570        C571   1.386       .  A
C570        H573   1.081       .  S
C571        C572   1.386       .  A
C571        C663   1.482       .  S
C572        H574   1.082       .  S
Cu575       N578   2.074       .  S
Cu576       N586   2.075       .  S
Cu577       N579   2.082   1_545  S
Cu577       N585   2.082       .  S
N578        N579   1.323       .  A
N578        C582   1.344       .  A
N579        C580   1.347       .  A
C580        C581   1.385       .  A
C580        H583   1.082       .  S
C581        C582   1.383       .  A
C581        C618   1.478       .  S
C582        H584   1.082       .  S
N585        N586   1.322       .  A
N585        C589   1.347       .  A
N586        C587   1.344       .  A
C587        C588   1.386       .  A
C587        H590   1.081       .  S
C588        C589   1.388       .  A
C588        C813   1.485       .  S
C589        H591   1.082       .  S
N592        N593   1.322       .  A
N592        C596   1.344       .  A
N592       Cu600   2.070       .  S
N593        C594   1.346       .  A
N593       Cu599   2.080       .  S
C594        C595   1.387       .  A
C594        H597   1.082       .  S
C595        C596   1.385       .  A
C595        C653   1.482       .  S
C596        H598   1.082       .  S
Cu599       N602   2.081       .  S
Cu600       N610   2.070       .  S
Cu601       N603   2.076       .  S
Cu601       N609   2.076       .  S
N602        N603   1.323       .  A
N602        C606   1.347       .  A
N603        C604   1.345       .  A
C604        C605   1.383       .  A
C604        H607   1.082       .  S
C605        C606   1.385       .  A
C605        C616   1.478       .  S
C606        H608   1.082       .  S
N609        N610   1.321       .  A
N609        C613   1.345       .  A
N610        C611   1.344       .  A
C611        C612   1.386       .  A
C611        H614   1.081       .  S
C612        C613   1.387       .  A
C612        C673   1.483       .  S
C613        H615   1.082       .  S
C616        C617   1.405       .  A
C616        C621   1.404       .  A
C617        C618   1.404       .  A
C617        H622   1.084       .  S
C618        C619   1.404       .  A
C619        C620   1.404       .  A
C619        H623   1.084       .  S
C620        C621   1.404       .  A
C620        C638   1.477       .  S
C621        H624   1.084       .  S
N625        N626   1.321       .  A
N625        C629   1.343       .  A
N625       Cu633   2.071       .  S
N626        C627   1.347       .  A
N626       Cu632   2.079       .  S
C627        C628   1.388       .  A
C627        H630   1.082       .  S
C628        C629   1.386       .  A
C628        C683   1.484       .  S
C629        H631   1.081       .  S
Cu632       N635   2.080       .  S
Cu633       N643   2.070       .  S
Cu634       N636   2.075       .  S
Cu634       N642   2.075       .  S
N635        N636   1.323       .  A
N635        C639   1.346       .  A
N636        C637   1.345       .  A
C637        C638   1.383       .  A
C637        H640   1.082       .  S
C638        C639   1.385       .  A
C639        H641   1.082       .  S
N642        N643   1.321       .  A
N642        C646   1.345       .  A
N643        C644   1.344       .  A
C644        C645   1.387       .  A
C644        H647   1.081       .  S
C645        C646   1.388       .  A
C645        C820   1.484       .  S
C646        H648   1.081       .  S
C649        C650   1.405       .  A
C649        C654   1.399       .  A
C649        H655   1.082       .  S
C650        C651   1.405       .  A
C651        C652   1.397       .  A
C651        H656   1.082       .  S
C652        C653   1.405       .  A
C652        H657   1.082       .  S
C653        C654   1.405       .  A
C654        H658   1.082       .  S
C659        C660   1.406       .  A
C659        C664   1.399   1_554  A
C659        H665   1.082       .  S
C660        C661   1.405   1_554  A
C661        C662   1.399       .  A
C661        H666   1.082   1_556  S
C662        C663   1.405       .  A
C662        H667   1.083       .  S
C663        C664   1.405       .  A
C664        H668   1.082       .  S
C669        C670   1.405       .  A
C669        C674   1.399       .  A
C669        H675   1.082       .  S
C670        C671   1.404       .  A
C671        C672   1.398       .  A
C671        H676   1.082       .  S
C672        C673   1.406       .  A
C672        H677   1.082       .  S
C673        C674   1.406       .  A
C674        H678   1.082       .  S
C679        C680   1.406       .  A
C679        C684   1.401       .  A
C679        H685   1.082       .  S
C680        C681   1.405       .  A
C681        C682   1.396       .  A
C681        H686   1.082       .  S
C682        C683   1.405       .  A
C682        H687   1.082       .  S
C683        C684   1.406       .  A
C684        H688   1.082       .  S
C689        C690   1.407       .  A
C689        C694   1.401       .  A
C689        H695   1.082       .  S
C690        C691   1.405       .  A
C691        C692   1.397       .  A
C691        H696   1.082       .  S
C692        C693   1.406       .  A
C692        H697   1.082       .  S
C693        C694   1.405       .  A
C694        H698   1.082       .  S
C699        C700   1.406       .  A
C699        C704   1.400       .  A
C699        H705   1.082       .  S
C700        C701   1.405       .  A
C701        C702   1.397       .  A
C701        H706   1.082       .  S
C702        C703   1.406       .  A
C702        H707   1.082       .  S
C703        C704   1.406       .  A
C704        H708   1.082       .  S
C709        C710   1.407       .  A
C709        C714   1.402       .  A
C709        H715   1.082       .  S
C710        C711   1.405       .  A
C711        C712   1.397       .  A
C711        H716   1.082       .  S
C712        C713   1.406       .  A
C712        H717   1.082       .  S
C713        C714   1.406       .  A
C714        H718   1.082       .  S
C719        C720   1.407       .  A
C719        C724   1.400       .  A
C719        H725   1.082       .  S
C720        C721   1.405       .  A
C721        C722   1.396       .  A
C721        H726   1.082       .  S
C722        C723   1.405       .  A
C722        H727   1.082       .  S
C723        C724   1.405       .  A
C724        H728   1.082       .  S
C729        C730   1.405       .  A
C729        C734   1.400       .  A
C729        H735   1.082       .  S
C730        C731   1.405       .  A
C731        C732   1.396       .  A
C731        H736   1.082       .  S
C732        C733   1.404       .  A
C732        H737   1.082       .  S
C733        C734   1.406       .  A
C734        H738   1.082       .  S
C739        C740   1.406       .  A
C739        C744   1.398       .  A
C739        H745   1.082       .  S
C740        C741   1.406       .  A
C741        C742   1.400       .  A
C741        H746   1.082       .  S
C742        C743   1.405       .  A
C742        H747   1.083       .  S
C743        C744   1.404       .  A
C744        H748   1.082       .  S
C749        C750   1.406       .  A
C749        C754   1.399       .  A
C749        H755   1.082       .  S
C750        C751   1.406       .  A
C751        C752   1.396       .  A
C751        H756   1.082       .  S
C752        C753   1.404       .  A
C752        H757   1.082       .  S
C753        C754   1.405       .  A
C754        H758   1.082       .  S
C759        C760   1.405       .  A
C759        C764   1.401       .  A
C759        H765   1.082       .  S
C760        C761   1.405       .  A
C761        C762   1.396       .  A
C761        H766   1.082       .  S
C762        C763   1.405       .  A
C762        H767   1.082       .  S
C763        C764   1.406       .  A
C764        H768   1.082       .  S
C769        C770   1.405       .  A
C769        C774   1.400       .  A
C769        H775   1.082       .  S
C770        C771   1.405       .  A
C771        C772   1.397       .  A
C771        H776   1.082       .  S
C772        C773   1.406       .  A
C772        H777   1.082       .  S
C773        C774   1.406       .  A
C774        H778   1.082       .  S
C779        C780   1.404       .  A
C779        C784   1.399       .  A
C779        H785   1.083       .  S
C780        C781   1.404       .  A
C781        C782   1.397       .  A
C781        H786   1.083       .  S
C782        C783   1.407       .  A
C782        H787   1.081       .  S
C783        C784   1.406       .  A
C784        H788   1.082       .  S
C789        C790   1.406       .  A
C789        C794   1.396       .  A
C789        H795   1.081       .  S
C790        C791   1.407       .  A
C791        C792   1.400       .  A
C791        H796   1.082       .  S
C792        C793   1.404       .  A
C792        H797   1.083       .  S
C793        C794   1.404       .  A
C794        H798   1.082       .  S
C799        C800   1.406       .  A
C799        C804   1.401       .  A
C799        H805   1.082       .  S
C800        C801   1.405       .  A
C801        C802   1.398       .  A
C801        H806   1.082       .  S
C802        C803   1.405       .  A
C802        H807   1.082       .  S
C803        C804   1.406       .  A
C804        H808   1.082       .  S
C809        C810   1.405       .  A
C809        C814   1.397       .  A
C809        H815   1.082       .  S
C810        C811   1.407       .  A
C811        C812   1.402       .  A
C811        H816   1.083       .  S
C812        C813   1.406       .  A
C812        H817   1.082       .  S
C813        C814   1.405       .  A
C814        H818   1.082       .  S
C819        C820   1.406       .  A
C819        C824   1.398       .  A
C819        H825   1.082       .  S
C820        C821   1.406       .  A
C821        C822   1.398       .  A
C821        H826   1.082       .  S
C822        C823   1.404       .  A
C822        H827   1.082       .  S
C823        C824   1.404       .  A
C824        H828   1.082       .  S
C829        C830   1.404       .  A
C829        C834   1.395       .  A
C829        H835   1.082       .  S
C830        C831   1.404       .  A
C831        C832   1.400       .  A
C831        H836   1.083       .  S
C832        C833   1.407       .  A
C832        H837   1.082       .  S
C833        C834   1.405       .  A
C834        H838   1.081       .  S
C839        C840   1.405       .  A
C839        C844   1.396       .  A
C839        H845   1.082       .  S
C840        C841   1.405       .  A
C841        C842   1.399       .  A
C841        H846   1.082       .  S
C842        C843   1.405       .  A
C842        H847   1.083       .  S
C843        C844   1.404       .  A
C844        H848   1.082       .  S
C849        C850   1.405       .  A
C849        C854   1.400       .  A
C849        H855   1.082       .  S
C850        C851   1.404       .  A
C851        C852   1.395       .  A
C851        H856   1.082       .  S
C852        C853   1.405       .  A
C852        H857   1.081       .  S
C853        C854   1.406       .  A
C854        H858   1.082       .  S
C859        C860   1.406       .  A
C859        C864   1.401       .  A
C859        H865   1.082       .  S
C860        C861   1.405       .  A
C861        C862   1.396       .  A
C861        H866   1.082       .  S
C862        C863   1.405       .  A
C862        H867   1.082       .  S
C863        C864   1.407       .  A
C864        H868   1.082       .  S
C869        C870   1.405       .  A
C869        C874   1.395   1_556  A
C869        H875   1.082       .  S
C870        C871   1.406       .  A
C871        C872   1.401   1_556  A
C871        H876   1.082       .  S
C872        C873   1.406       .  A
C872        H877   1.082       .  S
C873        C874   1.403       .  A
C874        H878   1.082       .  S
C879        C880   1.405       .  A
C879        C884   1.397       .  A
C879        H885   1.082       .  S
C880        C881   1.407       .  A
C881        C882   1.400       .  A
C881        H886   1.082       .  S
C882        C883   1.405       .  A
C882        H887   1.082       .  S
C883        C884   1.405       .  A
C884        H888   1.082       .  S
