geometry optimzed in LAMMPS
_audit_creation_date              2020-11-30 
_audit_creation_method            'lammps2cif' 
_symmetry_space_group_name_H-M    'P1' 
_symmetry_Int_Tables_number       1 
_symmetry_cell_setting            triclinic 
loop_ 
_symmetry_equiv_pos_as_xyz 
  x,y,z 
_cell_length_a                    23.306349121804104 
_cell_length_b                    23.426896387661646 
_cell_length_c                    28.078863313907394 
_cell_angle_alpha                 88.45119788228637 
_cell_angle_beta                  90.61068996662875 
_cell_angle_gamma                 89.05430390886939 
loop_ 
_atom_site_label 
_atom_site_type_symbol 
_atom_site_fract_x 
_atom_site_fract_y 
_atom_site_fract_z 
_atom_site_charge 
C1          C  0.00161487  0.26251546  0.52369896     0.00300
C2          C  0.49416152  0.25088433  0.47699129     0.00300
C3          C  0.25174758  0.48969877  0.52116902     0.00300
C4          C  0.25226647  0.00667476  0.47476933     0.00300
C5          C  0.12512658  0.34229847  0.66877910     0.42200
N6          N  0.14321004  0.30503207  0.73799093     0.01090
C7          C  0.38148204  0.33818989  0.88255800    -0.06790
H8          H  0.40397158  0.29547658  0.68572307     0.06580
C9          C  0.34154022  0.13202285  0.70805533    -0.07140
Co10       Co  0.24037025  0.35915694  0.79073504     0.74180
N11         N  0.34657726  0.32180990  0.74169561    -0.26320
Co12       Co  0.35423465  0.26256575  0.80094322     0.74070
C13         C  0.39390488  0.16131325  0.69079617     0.42300
N14         N  0.19989942  0.14179093  0.75173459     0.00700
N15         N  0.36370127  0.19768341  0.75592966     0.00810
N16         N  0.30978477  0.40466986  0.87934995    -0.47170
H17         H  0.19249283  0.41201864  0.67981426     0.06570
N18         N  0.30491850  0.36057613  0.74092916     0.01090
N19         N  0.35674073  0.20163623  0.85713193     0.00830
C20         C  0.37785973  0.14607155  0.91672430     0.42440
N21         N  0.15773435  0.17815453  0.74170355    -0.25780
C22         C  0.16349559  0.39162036  0.87278922    -0.06700
N23         N  0.11153504  0.29988790  0.69936533    -0.46880
N24         N  0.39410346  0.19436791  0.89306670    -0.47100
C25         C  0.11432652  0.36846159  0.89687045     0.42210
N26         N  0.30324338  0.36582577  0.84576585     0.01080
N27         N  0.15020747  0.18424587  0.84722792    -0.25800
N28         N  0.17842787  0.34849225  0.73569041    -0.26290
N29         N  0.19392231  0.14799155  0.85238326     0.00720
H30         H  0.06999532  0.19384490  0.88385741     0.06610
H31         H  0.30652389  0.08410611  0.89840611     0.06650
N32         N  0.34516640  0.32737755  0.84743112    -0.26340
N33         N  0.32641973  0.15717606  0.74967190    -0.25950
N34         N  0.13881272  0.31172210  0.84161762     0.01090
C35         C  0.33941905  0.36811532  0.66974014     0.42480
C36         C  0.13471859  0.16167394  0.69927949    -0.07200
N37         N  0.31963692  0.15987780  0.85569086    -0.25950
H38         H  0.31963793  0.09807017  0.69152795     0.06630
N39         N  0.29982259  0.38854384  0.69967942    -0.47170
H40         H  0.10012247  0.18346579  0.67990088     0.06620
C41         C  0.13516264  0.12361932  0.90716145     0.42320
C42         C  0.16909048  0.37567630  0.69318934    -0.06700
Co43       Co  0.14564451  0.24493170  0.79206935     0.73820
N44         N  0.20545208  0.10103228  0.72155473    -0.46890
C45         C  0.35847863  0.38870085  0.90393146     0.42580
N46         N  0.10059954  0.31878486  0.87600681    -0.46880
Co47       Co  0.26015992  0.15071186  0.80248174     0.73890
C48         C  0.32910877  0.12350327  0.89196641    -0.07210
C49         C  0.37114471  0.32393521  0.69805077    -0.06770
N50         N  0.17573231  0.35398180  0.83963163    -0.26300
N51         N  0.40367829  0.19980147  0.72396328    -0.47060
H52         H  0.42038605  0.31408471  0.89117874     0.06590
C53         C  0.11112483  0.17237935  0.88034105    -0.07180
Cl54       Cl  0.24991981  0.25436478  0.79672370    -0.50180
C55         C  0.16805244  0.10947784  0.68578727     0.42350
H56         H  0.18620959  0.43070229  0.87888608     0.06560
N57         N  0.18637740  0.11011861  0.88775790    -0.46900
C58         C  0.11762969  0.16353679  0.32301035     0.42200
N59         N  0.14318373  0.19914919  0.25572210     0.01090
C60         C  0.39231384  0.14409944  0.12835045    -0.06790
H61         H  0.40808345  0.19474602  0.31980881     0.06580
C62         C  0.33732667  0.36907193  0.28924403    -0.07140
Co63       Co  0.24265430  0.13961307  0.21002789     0.74180
N64         N  0.34843830  0.17303289  0.26317578    -0.26320
Co65       Co  0.36073353  0.23008061  0.20443676     0.74070
C66         C  0.38383723  0.33906135  0.31550603     0.42300
N67         N  0.20534507  0.35784554  0.24113905     0.00700
N68         N  0.36641761  0.29637309  0.25044310     0.00810
N69         N  0.31565291  0.08584602  0.12870914    -0.47170
H70         H  0.18851601  0.09465773  0.32160018     0.06570
N71         N  0.30447149  0.13823474  0.26322221     0.01090
N72         N  0.36884354  0.29079545  0.14719420     0.00830
C73         C  0.40101485  0.34988475  0.09425109     0.42440
N74         N  0.16262538  0.32338001  0.24985589    -0.25780
C75         C  0.16035787  0.10353997  0.12805759    -0.06700
N76         N  0.10703870  0.20579892  0.29095992    -0.46880
N77         N  0.41193712  0.29863710  0.11689995    -0.47100
C78         C  0.10924213  0.12801590  0.10443419     0.42210
N79         N  0.30884672  0.12792184  0.15925586     0.01080
N80         N  0.15861738  0.31669623  0.14513333    -0.25800
N81         N  0.17844157  0.15495305  0.26184406    -0.26290
N82         N  0.20392142  0.34957987  0.14072502     0.00720
H83         H  0.07507975  0.31838894  0.11137945     0.06610
H84         H  0.32798402  0.41418483  0.10591045     0.06650
N85         N  0.35320565  0.16250378  0.15903163    -0.26340
N86         N  0.32943974  0.33946613  0.24905535    -0.25950
N87         N  0.14286089  0.18882097  0.15327555     0.01090
C88         C  0.33779389  0.12967306  0.33474958     0.42480
C89         C  0.13901872  0.34003654  0.29160650    -0.07200
N90         N  0.33178452  0.33407431  0.14500788    -0.25950
H91         H  0.31251672  0.40544346  0.30028700     0.06630
N92         N  0.29682508  0.11233401  0.30482713    -0.47170
H93         H  0.10420368  0.31936152  0.31003212     0.06620
C94         C  0.14319977  0.38349095  0.08949885     0.42320
C95         C  0.16589543  0.13008542  0.30446342    -0.06700
Co96       Co  0.15061288  0.25704315  0.20069664     0.73820
N97         N  0.21119977  0.39757661  0.27214230    -0.46890
C98         C  0.36781551  0.09345816  0.10849549     0.42580
N99         N  0.10115645  0.18106508  0.12156471    -0.46880
Co100      Co  0.26764246  0.34565641  0.19331073     0.73890
C101        C  0.34829068  0.37286248  0.11274214    -0.07210
C102        C  0.37296199  0.16959339  0.30715604    -0.06770
N103        N  0.17809245  0.14401471  0.15757483    -0.26300
N104        N  0.39919799  0.29481015  0.28895425    -0.47060
H105        H  0.43343500  0.16333597  0.12163503     0.06590
C106        C  0.11815628  0.33465242  0.11387319    -0.07180
Cl107      Cl  0.25537540  0.24287268  0.20130993    -0.50180
C108        C  0.17219377  0.39063494  0.30580277     0.42350
H109        H  0.17929979  0.06131392  0.12524427     0.06560
N110        N  0.19629006  0.39070284  0.10779965    -0.46900
O111        O  0.43215161  0.43667249  0.05723530    -0.80400
O112        O  0.07827656  0.04737972  0.05919064    -0.80420
O113        O  0.05797252  0.42314753  0.05361656    -0.80430
O114        O  0.44922107  0.06315095  0.06369772    -0.80370
O115        O  0.14300307  0.45632589  0.02972643    -0.80490
O116        O  0.36230480  0.03101605  0.04317624    -0.80410
O117        O  0.03900226  0.13373643  0.04274479    -0.80400
O118        O  0.46871596  0.35419882  0.03122832    -0.80440
C119        C  0.43614186  0.38094738  0.05920286     1.09290
C120        C  0.07407091  0.10214202  0.06677557     1.09180
C121        C  0.11385689  0.42225645  0.05539976     1.09310
C122        C  0.39371956  0.06084964  0.06981754     1.09190
O123        O  0.39906317  0.05926196  0.95534973    -0.80400
O124        O  0.09605795  0.44895797  0.94234637    -0.80480
O125        O  0.44318943  0.40513897  0.94592677    -0.80410
O126        O  0.05308408  0.10236484  0.95185580    -0.80390
O127        O  0.12802930  0.04824493  0.96506044    -0.80440
O128        O  0.36969402  0.45608990  0.96655286    -0.80410
O129        O  0.45165027  0.13041500  0.97508680    -0.80370
O130        O  0.04750758  0.37363040  0.96024467    -0.80440
Co131      Co  0.42228674  0.00284670  0.00543306     1.51530
Co132      Co  0.07958465  0.99322625  0.99999443     1.51690
Co133      Co  0.99595665  0.42041920  0.99953772     1.51570
Co134      Co  0.00616060  0.07589831  0.00672550     1.51470
O135        O  0.99918818  0.00121896  0.97463837    -1.42330
C136        C  0.41140160  0.11112462  0.95091984     1.09220
C137        C  0.08413279  0.39778433  0.93487554     1.09310
C138        C  0.39109405  0.41899260  0.94037255     1.09250
C139        C  0.10457224  0.08987566  0.94325453     1.09220
C140        C  0.23047607  0.47154483  0.43340896    -0.05730
C141        C  0.24190393  0.49207299  0.38702997    -0.33160
C142        C  0.21566336  0.47075693  0.34706539     0.36090
C143        C  0.18230663  0.42131178  0.35050095    -0.06080
C144        C  0.17170366  0.39793085  0.39577842    -0.33050
C145        C  0.19300289  0.42413115  0.43714060     0.36000
H146        H  0.27058108  0.52651334  0.38017850     0.16370
O147        O  0.22401304  0.49839698  0.30386474    -0.60550
H148        H  0.14813446  0.35884190  0.39904135     0.16390
O149        O  0.17520974  0.40366824  0.48030769    -0.60650
H150        H  0.19365061  0.36535615  0.48431612     0.43380
H151        H  0.26572174  0.49550263  0.29745229     0.43340
C152        C  0.32905889  0.12484634  0.38673558    -0.05730
C153        C  0.27421421  0.13937581  0.40375097    -0.33160
C154        C  0.24972749  0.10721390  0.44099076     0.36090
C155        C  0.28144819  0.06162095  0.46254933    -0.06080
C156        C  0.34054082  0.05736486  0.45322336    -0.33050
C157        C  0.36389028  0.08697688  0.41417687     0.36000
H158        H  0.24690363  0.16876120  0.38306883     0.16370
O159        O  0.19232594  0.11377834  0.44993220    -0.60550
H160        H  0.36598165  0.02309978  0.46946478     0.16390
O161        O  0.41686194  0.07070992  0.39822490    -0.60650
H162        H  0.41028458  0.03631212  0.37918259     0.43380
H163        H  0.17249981  0.08945659  0.42675347     0.43340
C164        C  0.27692674  0.43324800  0.53933300    -0.05730
C165        C  0.33721057  0.42520531  0.54312708    -0.33160
C166        C  0.36179145  0.39681596  0.58394148     0.36090
C167        C  0.32597290  0.37000751  0.61753800    -0.06080
C168        C  0.26805771  0.36450562  0.60524494    -0.33050
C169        C  0.24303606  0.40047435  0.57012036     0.36000
H170        H  0.36507897  0.45006898  0.52063429     0.16370
O171        O  0.41890997  0.40310299  0.59409235    -0.60570
H172        H  0.24046210  0.34135055  0.62918049     0.16390
O173        O  0.18552320  0.41173028  0.57167978    -0.60650
H174        H  0.18008355  0.43834969  0.59816876     0.43380
H175        H  0.42175756  0.44042894  0.60971466     0.43340
C176        C  0.23247315  0.03077175  0.55843033    -0.05730
C177        C  0.17819393  0.05943748  0.55566612    -0.33160
C178        C  0.15499033  0.08716852  0.59583451     0.36090
C179        C  0.18381232  0.08183109  0.64007510    -0.06080
C180        C  0.23497331  0.04905649  0.64204930    -0.33050
C181        C  0.26226147  0.03061713  0.60184719     0.36000
H182        H  0.15292921  0.05844803  0.52316789     0.16370
O183        O  0.10323798  0.11558667  0.59207944    -0.60550
H184        H  0.25599889  0.03769421  0.67543131     0.16390
O185        O  0.31877649  0.51320249  0.60519269    -0.60650
H186        H  0.32304810  0.48865429  0.63438295     0.43380
H187        H  0.07410208  0.08663005  0.60019193     0.43340
C188        C  0.39552332  0.33606112  0.36708511    -0.05730
C189        C  0.44582803  0.36078393  0.38331949    -0.33160
C190        C  0.47591757  0.33685980  0.42268410     0.36090
C191        C  0.45476987  0.28821769  0.44718608    -0.06080
C192        C  0.40044287  0.26820675  0.43445967    -0.33050
C193        C  0.37061459  0.29215578  0.39484873     0.36000
H194        H  0.46570208  0.39414719  0.36202779     0.16370
O195        O  0.02863159  0.35795305  0.43397907    -0.60550
H196        H  0.38352513  0.23069309  0.45237392     0.16390
O197        O  0.32098531  0.26735234  0.37978037    -0.60650
H198        H  0.28954908  0.29098309  0.39294006     0.43380
H199        H  0.05211194  0.35308967  0.40512286     0.43340
C200        C  0.03677746  0.21689434  0.44888478    -0.05730
C201        C  0.01521722  0.17032387  0.42406275    -0.33160
C202        C  0.04532985  0.14671649  0.38604778     0.36090
C203        C  0.09804013  0.16944868  0.37224469    -0.06080
C204        C  0.12206009  0.21256446  0.39912474    -0.33050
C205        C  0.09251675  0.23602788  0.43739084     0.36000
H206        H  0.47251823  0.15544649  0.43174944     0.16370
O207        O  0.01986934  0.10616316  0.35903527    -0.60550
H208        H  0.16169648  0.23197168  0.38769883     0.16390
O209        O  0.11596887  0.28196670  0.45892301    -0.60650
H210        H  0.15305807  0.26800546  0.47290684     0.43380
H211        H  0.53709395  0.06928016  0.37057520     0.43340
C212        C  0.42386279  0.17120933  0.64411121    -0.05730
C213        C  0.46924421  0.20927762  0.64742876    -0.33160
C214        C  0.47896807  0.24787146  0.61053034     0.36090
C215        C  0.46791435  0.23266601  0.56325088    -0.06080
C216        C  0.42978024  0.18656536  0.55712351    -0.33050
C217        C  0.40372265  0.15947731  0.59763110     0.36000
H218        H  0.48776691  0.21905849  0.68176343     0.16370
O219        O  0.98771319  0.30390104  0.62137226    -0.60550
H220        H  0.41807855  0.17359169  0.52168142     0.16390
O221        O  0.35977156  0.12245890  0.59123685    -0.60650
H222        H  0.32458975  0.14681443  0.58910297     0.43380
H223        H  0.00903131  0.30505470  0.65204435     0.43340
C224        C  0.05397283  0.29290288  0.53976359    -0.05730
C225        C  0.09855473  0.25975979  0.56071879    -0.33160
C226        C  0.13067874  0.28069444  0.59848195     0.36090
C227        C  0.11592670  0.33407817  0.61732145    -0.06080
C228        C  0.07881595  0.37100377  0.59094651    -0.33050
C229        C  0.04987017  0.35140825  0.55041772     0.36000
H230        H  0.10383851  0.21548034  0.55143815     0.16370
O231        O  0.17033535  0.24542456  0.62130650    -0.60550
H232        H  0.06756287  0.41251324  0.60454262     0.16390
O233        O  0.50798183  0.38535298  0.52915222    -0.60650
H234        H  0.52844681  0.41797553  0.51433528     0.43380
H235        H  0.20422933  0.24514621  0.60026661     0.43340
C236        C  0.00161447  0.76251597  0.52369889     0.00300
C237        C  0.49416121  0.75088463  0.47699179     0.00300
C238        C  0.25174870  0.98969816  0.52116972     0.00300
C239        C  0.25226584  0.50667518  0.47476860     0.00300
C240        C  0.12512756  0.84229833  0.66877868     0.42200
N241        N  0.14321067  0.80503215  0.73799064     0.01090
C242        C  0.38148207  0.83818979  0.88255834    -0.06790
H243        H  0.40397295  0.79547633  0.68572380     0.06580
C244        C  0.34154056  0.63202257  0.70805569    -0.07140
Co245      Co  0.24037077  0.85915691  0.79073490     0.74180
N246        N  0.34657806  0.82180967  0.74169595    -0.26320
Co247      Co  0.35423496  0.76256554  0.80094352     0.74070
C248        C  0.39390519  0.66131290  0.69079650     0.42300
N249        N  0.19989965  0.64179100  0.75173440     0.00700
N250        N  0.36370163  0.69768321  0.75592992     0.00810
N251        N  0.30978499  0.90466995  0.87934986    -0.47170
H252        H  0.19249413  0.91201824  0.67981375     0.06570
N253        N  0.30491931  0.86057590  0.74092927     0.01090
N254        N  0.35674066  0.70163603  0.85713222     0.00830
C255        C  0.37785945  0.64607134  0.91672461     0.42440
N256        N  0.15773465  0.67815470  0.74170338    -0.25780
C257        C  0.16349581  0.89162056  0.87278891    -0.06700
N258        N  0.11153579  0.79988793  0.69936499    -0.46880
N259        N  0.39410329  0.69436767  0.89306705    -0.47100
C260        C  0.11432672  0.86846179  0.89687012     0.42210
N261        N  0.30324364  0.86582572  0.84576588     0.01080
N262        N  0.15020740  0.68424598  0.84722775    -0.25800
N263        N  0.17842866  0.84849219  0.73569008    -0.26290
N264        N  0.19392217  0.64799156  0.85238314     0.00720
H265        H  0.06999518  0.69384511  0.88385713     0.06610
H266        H  0.30652360  0.58410596  0.89840629     0.06650
N267        N  0.34516656  0.82737739  0.84743138    -0.26340
N268        N  0.32642004  0.65717590  0.74967217    -0.25950
N269        N  0.13881297  0.81172229  0.84161732     0.01090
C270        C  0.33942051  0.86811504  0.66974048     0.42480
C271        C  0.13471891  0.66167438  0.69927926    -0.07200
N272        N  0.31963680  0.65987765  0.85569107    -0.25950
H273        H  0.31963834  0.59806981  0.69152840     0.06630
N274        N  0.29982377  0.88854360  0.69967950    -0.47170
H275        H  0.10012289  0.68346641  0.67990067     0.06620
C276        C  0.13516232  0.62361938  0.90716126     0.42320
C277        C  0.16909157  0.87567606  0.69318888    -0.06700
Co278      Co  0.14564480  0.74493184  0.79206913     0.73820
N279        N  0.20545233  0.60103252  0.72155435    -0.46890
C280        C  0.35847869  0.88870092  0.90393157     0.42580
N281        N  0.10059976  0.81878506  0.87600649    -0.46880
Co282      Co  0.26015999  0.65071178  0.80248178     0.73890
C283        C  0.32910852  0.62350311  0.89196665    -0.07210
C284        C  0.37114592  0.82393495  0.69805129    -0.06770
N285        N  0.17573258  0.85398197  0.83963133    -0.26300
N286        N  0.40367866  0.69980123  0.72396352    -0.47060
H287        H  0.42038602  0.81408459  0.89117923     0.06590
C288        C  0.11112466  0.67237948  0.88034082    -0.07180
Cl289      Cl  0.24992011  0.75436473  0.79672370    -0.50180
C290        C  0.16805271  0.60947835  0.68578688     0.42350
H291        H  0.18620986  0.93070245  0.87888582     0.06560
N292        N  0.18637711  0.61011864  0.88775777    -0.46900
C293        C  0.11762984  0.66353720  0.32301045     0.42200
N294        N  0.14318386  0.69914948  0.25572217     0.01090
C295        C  0.39231372  0.64409940  0.12835016    -0.06790
H296        H  0.40808419  0.69474582  0.31980818     0.06580
C297        C  0.33732726  0.86907188  0.28924381    -0.07140
Co298      Co  0.24265432  0.63961327  0.21002783     0.74180
N299        N  0.34843859  0.67303294  0.26317540    -0.26320
Co300      Co  0.36073367  0.73008067  0.20443641     0.74070
C301        C  0.38383786  0.83906126  0.31550572     0.42300
N302        N  0.20534545  0.85784580  0.24113904     0.00700
N303        N  0.36641802  0.79637311  0.25044275     0.00810
N304        N  0.31565277  0.58584600  0.12870904    -0.47170
H305        H  0.18851643  0.59465845  0.32160052     0.06570
N306        N  0.30447170  0.63823489  0.26322198     0.01090
N307        N  0.36884356  0.79079552  0.14719386     0.00830
C308        C  0.40101483  0.84988490  0.09425082     0.42440
N309        N  0.16262581  0.82338026  0.24985603    -0.25780
C310        C  0.16035768  0.60354024  0.12805763    -0.06700
N311        N  0.10703880  0.70579923  0.29095996    -0.46880
N312        N  0.41193711  0.79863720  0.11689958    -0.47100
C313        C  0.10924192  0.62801618  0.10443425     0.42210
N314        N  0.30884661  0.62792194  0.15925566     0.01080
N315        N  0.15861749  0.81669644  0.14513343    -0.25800
N316        N  0.17844175  0.65495339  0.26184417    -0.26290
N317        N  0.20392155  0.84958004  0.14072504     0.00720
H318        H  0.07507987  0.81838905  0.11137955     0.06610
H319        H  0.32798410  0.91418502  0.10591035     0.06650
N320        N  0.35320556  0.66250386  0.15903131    -0.26340
N321        N  0.32944017  0.83946617  0.24905511    -0.25950
N322        N  0.14286077  0.68882123  0.15327563     0.01090
C323        C  0.33779455  0.62967302  0.33474918     0.42480
C324        C  0.13901949  0.84003672  0.29160681    -0.07200
N325        N  0.33178458  0.83407441  0.14500764    -0.25950
H326        H  0.31251734  0.90544333  0.30028690     0.06630
N327        N  0.29682549  0.61233410  0.30482690    -0.47170
H328        H  0.10420463  0.81936163  0.31003261     0.06620
C329        C  0.14319991  0.88349099  0.08949884     0.42320
C330        C  0.16589571  0.63008592  0.30446362    -0.06700
Co331      Co  0.15061302  0.75704342  0.20069674     0.73820
N332        N  0.21120037  0.89757683  0.27214230    -0.46890
C333        C  0.36781536  0.59345806  0.10849535     0.42580
N334        N  0.10115629  0.68106537  0.12156480    -0.46880
Co335      Co  0.26764270  0.84565656  0.19331062     0.73890
C336        C  0.34829071  0.87286263  0.11274194    -0.07210
C337        C  0.37296256  0.66959332  0.30715554    -0.06770
N338        N  0.17809232  0.64401494  0.15757487    -0.26300
N339        N  0.39919850  0.79481009  0.28895385    -0.47060
H340        H  0.43343491  0.66333585  0.12163472     0.06590
C341        C  0.11815639  0.83465255  0.11387327    -0.07180
Cl342      Cl  0.25537553  0.74287284  0.20130983    -0.50180
C343        C  0.17219468  0.89063509  0.30580302     0.42350
H344        H  0.17929960  0.56131418  0.12524426     0.06560
N345        N  0.19629022  0.89070292  0.10779960    -0.46900
O346        O  0.43215172  0.93667271  0.05723521    -0.80400
O347        O  0.07827646  0.54737998  0.05919063    -0.80420
O348        O  0.05797271  0.92314736  0.05361642    -0.80430
O349        O  0.44922100  0.56315040  0.06369785    -0.80370
O350        O  0.14300327  0.95632576  0.02972634    -0.80490
O351        O  0.36230468  0.53101579  0.04317623    -0.80410
O352        O  0.03900192  0.63373661  0.04274487    -0.80400
O353        O  0.46871593  0.85419904  0.03122809    -0.80440
C354        C  0.43614187  0.88094759  0.05920266     1.09290
C355        C  0.07407067  0.60214227  0.06677561     1.09180
C356        C  0.11385707  0.92225636  0.05539967     1.09310
C357        C  0.39371944  0.56084934  0.06981754     1.09190
O358        O  0.39906311  0.55926161  0.95534974    -0.80400
O359        O  0.09605822  0.94895802  0.94234624    -0.80480
O360        O  0.44318955  0.90513933  0.94592662    -0.80410
O361        O  0.05308382  0.60236505  0.95185582    -0.80390
O362        O  0.12802899  0.54824500  0.96506029    -0.80440
O363        O  0.36969412  0.95609015  0.96655284    -0.80410
O364        O  0.45164992  0.63041471  0.97508712    -0.80370
O365        O  0.04750782  0.87363042  0.96024442    -0.80440
Co366      Co  0.42228665  0.50284642  0.00543309     1.51530
Co367      Co  0.07958444  0.49322638  0.99999448     1.51690
Co368      Co  0.99595687  0.92041911  0.99953758     1.51570
Co369      Co  0.00616032  0.57589843  0.00672553     1.51470
O370        O  0.99918795  0.50121904  0.97463843    -1.42330
C371        C  0.41140136  0.61112433  0.95092005     1.09220
C372        C  0.08413303  0.89778441  0.93487531     1.09310
C373        C  0.39109414  0.91899287  0.94037250     1.09250
C374        C  0.10457192  0.58987578  0.94325442     1.09220
C375        C  0.23047749  0.97154407  0.43340962    -0.05730
C376        C  0.24190651  0.99207167  0.38703071    -0.33160
C377        C  0.21566582  0.97075613  0.34706598     0.36090
C378        C  0.18230818  0.92131155  0.35050132    -0.06080
C379        C  0.17170441  0.89793087  0.39577874    -0.33050
C380        C  0.19300354  0.92413100  0.43714105     0.36000
H381        H  0.27058440  0.02651145  0.38017947     0.16370
O382        O  0.22401586  0.99839641  0.30386547    -0.60550
H383        H  0.14813438  0.85884242  0.39904156     0.16390
O384        O  0.17520935  0.90366874  0.48030802    -0.60650
H385        H  0.19364946  0.86535634  0.48431680     0.43380
H386        H  0.26572462  0.99550224  0.29745327     0.43340
C387        C  0.32905994  0.62484619  0.38673519    -0.05730
C388        C  0.27421564  0.63937647  0.40375098    -0.33160
C389        C  0.24972867  0.60721468  0.44099072     0.36090
C390        C  0.28144863  0.56162077  0.46254861    -0.06080
C391        C  0.34054106  0.55736351  0.45322215    -0.33050
C392        C  0.36389085  0.58697581  0.41417598     0.36000
H393        H  0.24690539  0.66876253  0.38306918     0.16370
O394        O  0.19232737  0.61378026  0.44993268    -0.60550
H395        H  0.36598136  0.52309769  0.46946303     0.16390
O396        O  0.41686233  0.57070852  0.39822381    -0.60650
H397        H  0.41028457  0.53631105  0.37918119     0.43380
H398        H  0.17250043  0.58945885  0.42675417     0.43340
C399        C  0.27692836  0.93324746  0.53933340    -0.05730
C400        C  0.33721227  0.92520550  0.54312773    -0.33160
C401        C  0.36179320  0.89681614  0.58394211     0.36090
C402        C  0.32597475  0.87000702  0.61753831    -0.06080
C403        C  0.26805971  0.86450448  0.60524498    -0.33050
C404        C  0.24303789  0.90047311  0.57012041     0.36000
H405        H  0.36508051  0.95006975  0.52063522     0.16370
O406        O  0.41891151  0.90310392  0.59409343    -0.60570
H407        H  0.24046416  0.84134911  0.62918041     0.16390
O408        O  0.18552493  0.91172837  0.57167971    -0.60650
H409        H  0.18008493  0.93834808  0.59816843     0.43380
H410        H  0.42175843  0.94042996  0.60971569     0.43340
C411        C  0.23247261  0.53077279  0.55842947    -0.05730
C412        C  0.17819336  0.55943846  0.55566557    -0.33160
C413        C  0.15499010  0.58716944  0.59583411     0.36090
C414        C  0.18381248  0.58183202  0.64007453    -0.06080
C415        C  0.23497360  0.54905763  0.64204838    -0.33050
C416        C  0.26226142  0.53061834  0.60184609     0.36000
H417        H  0.15292834  0.55844892  0.52316750     0.16370
O418        O  0.10323760  0.61558739  0.59207941    -0.60550
H419        H  0.25599932  0.53769513  0.67543027     0.16390
O420        O  0.31877654  0.01320139  0.60519418    -0.60650
H421        H  0.32304790  0.98865317  0.63438445     0.43380
H422        H  0.07410189  0.58663064  0.60019207     0.43340
C423        C  0.39552363  0.83606069  0.36708486    -0.05730
C424        C  0.44582776  0.86078409  0.38331981    -0.33160
C425        C  0.47591696  0.83686025  0.42268474     0.36090
C426        C  0.45476956  0.78821772  0.44718633    -0.06080
C427        C  0.40044305  0.76820610  0.43445925    -0.33050
C428        C  0.37061504  0.79215496  0.39484811     0.36000
H429        H  0.46570164  0.89414775  0.36202844     0.16370
O430        O  0.02863133  0.85795360  0.43397910    -0.60550
H431        H  0.38352551  0.73069214  0.45237318     0.16390
O432        O  0.32098622  0.76735111  0.37977925    -0.60650
H433        H  0.28954959  0.79098143  0.39293881     0.43380
H434        H  0.05211183  0.85309032  0.40512297     0.43340
C435        C  0.03677707  0.71689484  0.44888464    -0.05730
C436        C  0.01521678  0.67032450  0.42406245    -0.33160
C437        C  0.04532953  0.64671710  0.38604754     0.36090
C438        C  0.09804003  0.66944906  0.37224472    -0.06080
C439        C  0.12205997  0.71256471  0.39912490    -0.33050
C440        C  0.09251646  0.73602825  0.43739086     0.36000
H441        H  0.47251910  0.65544570  0.43175067     0.16370
O442        O  0.01986897  0.60616400  0.35903483    -0.60550
H443        H  0.16169651  0.73197178  0.38769917     0.16390
O444        O  0.11596853  0.78196712  0.45892299    -0.60650
H445        H  0.15305781  0.76800597  0.47290675     0.43380
H446        H  0.53709574  0.56927987  0.37057692     0.43340
C447        C  0.42386315  0.67120861  0.64411153    -0.05730
C448        C  0.46924537  0.70927591  0.64742918    -0.33160
C449        C  0.47896929  0.74787032  0.61053112     0.36090
C450        C  0.46791464  0.73266593  0.56325150    -0.06080
C451        C  0.42977967  0.68656604  0.55712393    -0.33050
C452        C  0.40372213  0.65947781  0.59763143     0.36000
H453        H  0.48776845  0.71905592  0.68176391     0.16370
O454        O  0.98771443  0.80390033  0.62137274    -0.60550
H455        H  0.41807709  0.67359332  0.52168177     0.16390
O456        O  0.35976994  0.62246069  0.59123713    -0.60650
H457        H  0.32458867  0.64681710  0.58910440     0.43380
H458        H  0.00903269  0.80505332  0.65204481     0.43340
C459        C  0.05397257  0.79290318  0.53976350    -0.05730
C460        C  0.09855451  0.75975991  0.56071845    -0.33160
C461        C  0.13067892  0.78069439  0.59848144     0.36090
C462        C  0.11592724  0.83407815  0.61732107    -0.06080
C463        C  0.07881643  0.87100393  0.59094635    -0.33050
C464        C  0.04987020  0.85140854  0.55041773     0.36000
H465        H  0.10383809  0.71548048  0.55143769     0.16370
O466        O  0.17033563  0.74542438  0.62130571    -0.60550
H467        H  0.06756367  0.91251344  0.60454253     0.16390
O468        O  0.50798045  0.88535376  0.52915307    -0.60650
H469        H  0.52844503  0.91797684  0.51433657     0.43380
H470        H  0.20422938  0.74514590  0.60026557     0.43340
C471        C  0.50161474  0.26251448  0.52369973     0.00300
C472        C  0.99416145  0.25088478  0.47699065     0.00300
C473        C  0.75174406  0.48970048  0.52116787     0.00300
C474        C  0.75226397  0.00667616  0.47476757     0.00300
C475        C  0.62512355  0.34230019  0.66878031     0.42200
N476        N  0.64320819  0.30503268  0.73799161     0.01090
C477        C  0.88148130  0.33819066  0.88255748    -0.06790
H478        H  0.90396826  0.29547796  0.68572178     0.06580
C479        C  0.84154023  0.13202421  0.70805473    -0.07140
Co480      Co  0.74036856  0.35915743  0.79073555     0.74180
N481        N  0.84657509  0.32181112  0.74169523    -0.26320
Co482      Co  0.85423335  0.26256671  0.80094286     0.74070
C483        C  0.89390477  0.16131512  0.69079588     0.42300
N484        N  0.69989861  0.14179159  0.75173390     0.00700
N485        N  0.86370030  0.19768475  0.75592925     0.00810
N486        N  0.80978384  0.40467043  0.87935002    -0.47170
H487        H  0.69248934  0.41202067  0.67981577     0.06570
N488        N  0.80491625  0.36057726  0.74092928     0.01090
N489        N  0.85674001  0.20163678  0.85713143     0.00830
C490        C  0.87785958  0.14607170  0.91672348     0.42440
N491        N  0.65773334  0.17815516  0.74170332    -0.25780
C492        C  0.66349470  0.39161967  0.87279019    -0.06700
N493        N  0.61153269  0.29988902  0.69936623    -0.46880
N494        N  0.89410289  0.19436839  0.89306611    -0.47100
C495        C  0.61432589  0.36846063  0.89687146     0.42210
N496        N  0.80324210  0.36582630  0.84576601     0.01080
N497        N  0.65020678  0.18424542  0.84722779    -0.25800
N498        N  0.67842568  0.34849311  0.73569128    -0.26290
N499        N  0.69392171  0.14799115  0.85238283     0.00720
H500        H  0.56999485  0.19384422  0.88385762     0.06610
H501        H  0.80652406  0.08410597  0.89840509     0.06650
N502        N  0.84516522  0.32737820  0.84743095    -0.26340
N503        N  0.82641911  0.15717716  0.74967125    -0.25950
N504        N  0.63881174  0.31172160  0.84161832     0.01090
C505        C  0.83941536  0.36811661  0.66973975     0.42480
C506        C  0.63471749  0.16167521  0.69927913    -0.07200
N507        N  0.81963645  0.15987810  0.85569022    -0.25950
H508        H  0.81963862  0.09807119  0.69152728     0.06630
N509        N  0.79981949  0.38854499  0.69967960    -0.47170
H510        H  0.60012134  0.18346732  0.67990078     0.06620
C511        C  0.63516229  0.12361859  0.90716120     0.42320
C512        C  0.66908748  0.37567789  0.69319064    -0.06700
Co513      Co  0.64564339  0.24493172  0.79206961     0.73820
N514        N  0.70545139  0.10103354  0.72155348    -0.46890
C515        C  0.85847807  0.38870159  0.90393109     0.42580
N516        N  0.60059876  0.31878403  0.87600770    -0.46880
Co517      Co  0.76015928  0.15071223  0.80248112     0.73890
C518        C  0.82910869  0.12350332  0.89196555    -0.07210
C519        C  0.87114166  0.32393654  0.69805000    -0.06770
N520        N  0.67573121  0.35398141  0.83963239    -0.26300
N521        N  0.90367763  0.19980318  0.72396317    -0.47060
H522        H  0.92038552  0.31408565  0.89117783     0.06590
C523        C  0.61112432  0.17237868  0.88034101    -0.07180
Cl524      Cl  0.74991862  0.25436522  0.79672364    -0.50180
C525        C  0.66805153  0.10947957  0.68578620     0.42350
H526        H  0.68620861  0.43070165  0.87888706     0.06560
N527        N  0.68637701  0.11011805  0.88775742    -0.46900
C528        C  0.61763089  0.16353769  0.32301073     0.42200
N529        N  0.64318437  0.19914926  0.25572204     0.01090
C530        C  0.89231421  0.14409974  0.12834986    -0.06790
H531        H  0.90808486  0.19474671  0.31980801     0.06580
C532        C  0.83732720  0.36907259  0.28924327    -0.07140
Co533      Co  0.74265512  0.13961323  0.21002790     0.74180
N534        N  0.84843932  0.17303345  0.26317531    -0.26320
Co535      Co  0.86073418  0.23008105  0.20443618     0.74070
C536        C  0.88383792  0.33906221  0.31550523     0.42300
N537        N  0.70534557  0.35784524  0.24113889     0.00700
N538        N  0.86641830  0.29637370  0.25044242     0.00810
N539        N  0.81565341  0.08584614  0.12870895    -0.47170
H540        H  0.68851804  0.09465956  0.32160133     0.06570
N541        N  0.80447259  0.13823519  0.26322197     0.01090
N542        N  0.86884387  0.29079580  0.14719348     0.00830
C543        C  0.90101489  0.34988513  0.09425022     0.42440
N544        N  0.66262562  0.32337988  0.24985537    -0.25780
C545        C  0.66035841  0.10353966  0.12805781    -0.06700
N546        N  0.60703945  0.20579926  0.29095992    -0.46880
N547        N  0.91193732  0.29863752  0.11689909    -0.47100
C548        C  0.60924260  0.12801554  0.10443442     0.42210
N549        N  0.80884734  0.12792199  0.15925567     0.01080
N550        N  0.65861778  0.31669581  0.14513307    -0.25800
N551        N  0.67844256  0.15495344  0.26184430    -0.26290
N552        N  0.70392173  0.34957956  0.14072475     0.00720
H553        H  0.57508011  0.31838833  0.11137929     0.06610
H554        H  0.82798401  0.41418510  0.10590978     0.06650
N555        N  0.85320619  0.16250405  0.15903119    -0.26340
N556        N  0.82944028  0.33946660  0.24905470    -0.25950
N557        N  0.64286147  0.18882071  0.15327558     0.01090
C558        C  0.83779560  0.12967350  0.33474912     0.42480
C559        C  0.63901826  0.34003657  0.29160563    -0.07200
N560        N  0.83178479  0.33407461  0.14500726    -0.25950
H561        H  0.81251713  0.40544414  0.30028617     0.06630
N562        N  0.79682659  0.11233436  0.30482690    -0.47170
H563        H  0.60420274  0.31936180  0.31003081     0.06620
C564        C  0.64320001  0.38349042  0.08949864     0.42320
C565        C  0.66589690  0.13008649  0.30446405    -0.06700
Co566      Co  0.65061338  0.25704295  0.20069641     0.73820
N567        N  0.71119996  0.39757629  0.27214221    -0.46890
C568        C  0.86781585  0.09345837  0.10849506     0.42580
N569        N  0.60115696  0.18106474  0.12156484    -0.46880
Co570      Co  0.76764284  0.34565648  0.19331032     0.73890
C571        C  0.84829076  0.37286279  0.11274144    -0.07210
C572        C  0.87296333  0.16959402  0.30715544    -0.06770
N573        N  0.67809305  0.14401448  0.15757494    -0.26300
N574        N  0.89919878  0.29481098  0.28895350    -0.47060
H575        H  0.93343527  0.16333636  0.12163421     0.06590
C576        C  0.61815662  0.33465186  0.11387296    -0.07180
Cl577      Cl  0.75537601  0.24287279  0.20130963    -0.50180
C578        C  0.67219321  0.39063482  0.30580213     0.42350
H579        H  0.67930034  0.06131360  0.12524451     0.06560
N580        N  0.69629028  0.39070248  0.10779938    -0.46900
O581        O  0.93215194  0.43667300  0.05723467    -0.80400
O582        O  0.57827699  0.04737943  0.05919091    -0.80420
O583        O  0.55797261  0.42314769  0.05361727    -0.80430
O584        O  0.94922126  0.06315118  0.06369717    -0.80370
O585        O  0.64300315  0.45632516  0.02972622    -0.80490
O586        O  0.86230504  0.03101619  0.04317583    -0.80410
O587        O  0.53900236  0.13373604  0.04274534    -0.80400
O588        O  0.96871560  0.35419931  0.03122710    -0.80440
C589        C  0.93614183  0.38094785  0.05920193     1.09290
C590        C  0.57407122  0.10214167  0.06677593     1.09180
C591        C  0.61385699  0.42225604  0.05539986     1.09310
C592        C  0.89371979  0.06084983  0.06981707     1.09190
O593        O  0.89906316  0.05926217  0.95534917    -0.80400
O594        O  0.59605707  0.44895732  0.94234660    -0.80480
O595        O  0.94318937  0.40514006  0.94592567    -0.80410
O596        O  0.55308410  0.10236446  0.95185629    -0.80390
O597        O  0.62802918  0.04824422  0.96506035    -0.80440
O598        O  0.86969391  0.45609036  0.96655258    -0.80410
O599        O  0.95165019  0.13041531  0.97508609    -0.80370
O600        O  0.54750756  0.37362955  0.96024599    -0.80440
Co601      Co  0.92228697  0.00284694  0.00543253     1.51530
Co602      Co  0.57958443  0.99322597  0.99999475     1.51690
Co603      Co  0.49595664  0.42041865  0.99953870     1.51570
Co604      Co  0.50616058  0.07589795  0.00672610     1.51470
O605        O  0.49918790  0.00121864  0.97463899    -1.42330
C606        C  0.91140153  0.11112485  0.95091914     1.09220
C607        C  0.58413224  0.39778348  0.93487637     1.09310
C608        C  0.89109384  0.41899338  0.94037193     1.09250
C609        C  0.60457211  0.08987504  0.94325459     1.09220
C610        C  0.73047287  0.47154689  0.43340776    -0.05730
C611        C  0.74189890  0.49207614  0.38702870    -0.33160
C612        C  0.71565926  0.47075878  0.34706423     0.36090
C613        C  0.68230438  0.42131246  0.35050004    -0.06080
C614        C  0.67170239  0.39793117  0.39577756    -0.33050
C615        C  0.69300131  0.42413191  0.43713962     0.36000
H616        H  0.77057441  0.52651780  0.38017698     0.16370
O617        O  0.72400867  0.49839830  0.30386332    -0.60550
H618        H  0.64813468  0.35884129  0.39904060     0.16390
O619        O  0.67520977  0.40366778  0.48030682    -0.60650
H620        H  0.69365240  0.36535646  0.48431484     0.43380
H621        H  0.76571733  0.49550364  0.29745074     0.43340
C622        C  0.82906117  0.12484642  0.38673513    -0.05730
C623        C  0.77421733  0.13937790  0.40375127    -0.33160
C624        C  0.74972968  0.10721622  0.44099078     0.36090
C625        C  0.78144840  0.06162093  0.46254786    -0.06080
C626        C  0.84054060  0.05736200  0.45322102    -0.33050
C627        C  0.86389109  0.08697449  0.41417530     0.36000
H628        H  0.74690774  0.16876500  0.38306988     0.16370
O629        O  0.69232867  0.11378339  0.44993323    -0.60550
H630        H  0.86597999  0.02309510  0.46946124     0.16390
O631        O  0.91686214  0.07070617  0.39822289    -0.60650
H632        H  0.91028346  0.03630928  0.37917978     0.43380
H633        H  0.67250078  0.08946201  0.42675525     0.43340
C634        C  0.77692243  0.43324965  0.53933249    -0.05730
C635        C  0.83720613  0.42520564  0.54312613    -0.33160
C636        C  0.86178698  0.39681628  0.58394052     0.36090
C637        C  0.82596829  0.37000919  0.61753770    -0.06080
C638        C  0.76805276  0.36450858  0.60524525    -0.33050
C639        C  0.74303138  0.40047726  0.57012049     0.36000
H640        H  0.86507485  0.45006815  0.52063279     0.16370
O641        O  0.91890595  0.40310171  0.59409043    -0.60570
H642        H  0.74045710  0.34135415  0.62918109     0.16390
O643        O  0.68551863  0.41173411  0.57167987    -0.60650
H644        H  0.68007933  0.43835300  0.59816928     0.43380
H645        H  0.92175496  0.44042753  0.60971274     0.43340
C646        C  0.73247014  0.03077449  0.55842811    -0.05730
C647        C  0.67819070  0.05943984  0.55566472    -0.33160
C648        C  0.65498788  0.08717075  0.59583347     0.36090
C649        C  0.68381116  0.08183385  0.64007354    -0.06080
C650        C  0.73497275  0.04906019  0.64204681    -0.33050
C651        C  0.76225982  0.03062061  0.60184428     0.36000
H652        H  0.65292518  0.05844995  0.52316690     0.16370
O653        O  0.60323494  0.11558797  0.59207938    -0.60550
H654        H  0.75599911  0.03769790  0.67542843     0.16390
O655        O  0.81877442  0.51320505  0.60519023    -0.60650
H656        H  0.82304620  0.48865671  0.63438041     0.43380
H657        H  0.57409980  0.08663087  0.60019268     0.43340
C658        C  0.89552370  0.33606182  0.36708434    -0.05730
C659        C  0.94582827  0.36078463  0.38331897    -0.33160
C660        C  0.97591765  0.33686033  0.42268359     0.36090
C661        C  0.95476991  0.28821807  0.44718532    -0.06080
C662        C  0.90044302  0.26820709  0.43445865    -0.33050
C663        C  0.87061490  0.29215630  0.39484771     0.36000
H664        H  0.96570239  0.39414801  0.36202746     0.16370
O665        O  0.52863153  0.35795259  0.43397940    -0.60550
H666        H  0.88352526  0.23069332  0.45237273     0.16390
O667        O  0.82098574  0.26735290  0.37977906    -0.60650
H668        H  0.78954941  0.29098341  0.39293887     0.43380
H669        H  0.55211183  0.35308908  0.40512318     0.43340
C670        C  0.53677784  0.21689441  0.44888528    -0.05730
C671        C  0.51521786  0.17032413  0.42406293    -0.33160
C672        C  0.54533061  0.14671719  0.38604784     0.36090
C673        C  0.59804087  0.16944966  0.37224495    -0.06080
C674        C  0.62206053  0.21256540  0.39912523    -0.33050
C675        C  0.59251704  0.23602833  0.43739150     0.36000
H676        H  0.97251753  0.15544636  0.43174934     0.16370
O677        O  0.51987028  0.10616395  0.35903511    -0.60550
H678        H  0.66169693  0.23197277  0.38769953     0.16390
O679        O  0.61596896  0.28196700  0.45892404    -0.60650
H680        H  0.65305817  0.26800574  0.47290783     0.43380
H681        H  0.03709346  0.06927946  0.37057507     0.43340
C682        C  0.92386244  0.17121222  0.64411095    -0.05730
C683        C  0.96924272  0.20928189  0.64742844    -0.33160
C684        C  0.97896674  0.24787492  0.61052949     0.36090
C685        C  0.96791377  0.23266822  0.56325022    -0.06080
C686        C  0.92978046  0.18656689  0.55712320    -0.33050
C687        C  0.90372302  0.15947906  0.59763089     0.36000
H688        H  0.98776487  0.21906384  0.68176306     0.16370
O689        O  0.48771413  0.30389741  0.62137390    -0.60550
H690        H  0.91807947  0.17359227  0.52168121     0.16390
O691        O  0.85977280  0.12245964  0.59123680    -0.60650
H692        H  0.82459057  0.14681451  0.58910204     0.43380
H693        H  0.50903103  0.30505074  0.65204658     0.43340
C694        C  0.55397193  0.29290320  0.53976437    -0.05730
C695        C  0.59855456  0.25976121  0.56071968    -0.33160
C696        C  0.63067779  0.28069657  0.59848300     0.36090
C697        C  0.61592426  0.33407991  0.61732256    -0.06080
C698        C  0.57881271  0.37100464  0.59094752    -0.33050
C699        C  0.54986780  0.35140847  0.55041852     0.36000
H700        H  0.60383953  0.21548189  0.55143901     0.16370
O701        O  0.67033501  0.24542754  0.62130774    -0.60550
H702        H  0.56755852  0.41251384  0.60454360     0.16390
O703        O  0.00798442  0.38535359  0.52915202    -0.60650
H704        H  0.02844975  0.41797578  0.51433486     0.43380
H705        H  0.70422862  0.24514875  0.60026744     0.43340
C706        C  0.50161431  0.76251513  0.52370022     0.00300
C707        C  0.99416105  0.75088528  0.47699055     0.00300
C708        C  0.75174443  0.98969990  0.52116795     0.00300
C709        C  0.75226363  0.50667662  0.47476744     0.00300
C710        C  0.62512345  0.84230116  0.66878048     0.42200
N711        N  0.64320824  0.80503336  0.73799165     0.01090
C712        C  0.88148138  0.83819061  0.88255753    -0.06790
H713        H  0.90396859  0.79547802  0.68572193     0.06580
C714        C  0.84153958  0.63202454  0.70805451    -0.07140
Co715      Co  0.74036876  0.85915773  0.79073557     0.74180
N716        N  0.84657527  0.82181121  0.74169529    -0.26320
Co717      Co  0.85423331  0.76256675  0.80094285     0.74070
C718        C  0.89390413  0.66131533  0.69079560     0.42300
N719        N  0.69989820  0.64179208  0.75173379     0.00700
N720        N  0.86370006  0.69768483  0.75592915     0.00810
N721        N  0.80978407  0.90467054  0.87935001    -0.47170
H722        H  0.69248960  0.91202132  0.67981587     0.06570
N723        N  0.80491648  0.86057741  0.74092930     0.01090
N724        N  0.85673979  0.70163678  0.85713137     0.00830
C725        C  0.87785927  0.64607168  0.91672343     0.42440
N726        N  0.65773308  0.67815583  0.74170320    -0.25780
C727        C  0.66349491  0.89162004  0.87279024    -0.06700
N728        N  0.61153259  0.79988993  0.69936633    -0.46880
N729        N  0.89410264  0.69436834  0.89306606    -0.47100
C730        C  0.61432605  0.86846103  0.89687149     0.42210
N731        N  0.80324228  0.86582640  0.84576602     0.01080
N732        N  0.65020647  0.68424578  0.84722773    -0.25800
N733        N  0.67842587  0.84849367  0.73569132    -0.26290
N734        N  0.69392135  0.64799145  0.85238273     0.00720
H735        H  0.56999450  0.69384449  0.88385756     0.06610
H736        H  0.80652366  0.58410605  0.89840503     0.06650
N737        N  0.84516531  0.82737822  0.84743099    -0.26340
N738        N  0.82641871  0.65717739  0.74967113    -0.25950
N739        N  0.63881184  0.81172205  0.84161832     0.01090
C740        C  0.83941571  0.86811663  0.66973980     0.42480
C741        C  0.63471732  0.66167612  0.69927890    -0.07200
N742        N  0.81963616  0.65987816  0.85569014    -0.25950
H743        H  0.81963778  0.59807168  0.69152702     0.06630
N744        N  0.79981982  0.88854510  0.69967960    -0.47170
H745        H  0.60012136  0.68346847  0.67990049     0.06620
C746        C  0.63516186  0.62361871  0.90716104     0.42320
C747        C  0.66908765  0.87567858  0.69319073    -0.06700
Co748      Co  0.64564329  0.74493227  0.79206957     0.73820
N749        N  0.70545089  0.60103410  0.72155329    -0.46890
C750        C  0.85847824  0.88870160  0.90393111     0.42580
N751        N  0.60059885  0.81878449  0.87600768    -0.46880
Co752      Co  0.76015892  0.65071250  0.80248102     0.73890
C753        C  0.82910835  0.62350336  0.89196548    -0.07210
C754        C  0.87114195  0.82393659  0.69805011    -0.06770
N755        N  0.67573137  0.85398181  0.83963241    -0.26300
N756        N  0.90367726  0.69980327  0.72396295    -0.47060
H757        H  0.92038556  0.81408554  0.89117790     0.06590
C758        C  0.61112396  0.67237894  0.88034092    -0.07180
Cl759      Cl  0.74991854  0.75436551  0.79672362    -0.50180
C760        C  0.66805117  0.60948039  0.68578595     0.42350
H761        H  0.68620887  0.93070198  0.87888716     0.06560
N762        N  0.68637659  0.61011824  0.88775723    -0.46900
C763        C  0.61763112  0.66353837  0.32301125     0.42200
N764        N  0.64318430  0.69914953  0.25572230     0.01090
C765        C  0.89231391  0.64409971  0.12834981    -0.06790
H766        H  0.90808506  0.69474705  0.31980777     0.06580
C767        C  0.83732727  0.86907285  0.28924285    -0.07140
Co768      Co  0.74265497  0.63961333  0.21002810     0.74180
N769        N  0.84843930  0.67303370  0.26317525    -0.26320
Co770      Co  0.86073407  0.73008112  0.20443602     0.74070
C771        C  0.88383807  0.83906259  0.31550480     0.42300
N772        N  0.70534551  0.85784550  0.24113858     0.00700
N773        N  0.86641832  0.79637390  0.25044209     0.00810
N774        N  0.81565314  0.58584607  0.12870906    -0.47170
H775        H  0.68851833  0.59466032  0.32160194     0.06570
N776        N  0.80447256  0.63823545  0.26322205     0.01090
N777        N  0.86884374  0.79079570  0.14719319     0.00830
C778        C  0.90101483  0.84988495  0.09424989     0.42440
N779        N  0.66262562  0.82338013  0.24985526    -0.25780
C780        C  0.66035818  0.60353954  0.12805808    -0.06700
N781        N  0.60703956  0.70579976  0.29096028    -0.46880
N782        N  0.91193724  0.79863738  0.11689884    -0.47100
C783        C  0.60924238  0.62801538  0.10443463     0.42210
N784        N  0.80884710  0.62792195  0.15925576     0.01080
N785        N  0.65861760  0.81669573  0.14513299    -0.25800
N786        N  0.67844252  0.65495375  0.26184463    -0.26290
N787        N  0.70392159  0.84957940  0.14072454     0.00720
H788        H  0.57507980  0.81838841  0.11137939     0.06610
H789        H  0.82798395  0.91418496  0.10590935     0.06650
N790        N  0.85320594  0.66250402  0.15903118    -0.26340
N791        N  0.82944028  0.83946678  0.24905434    -0.25950
N792        N  0.64286119  0.68882062  0.15327580     0.01090
C793        C  0.83779582  0.62967389  0.33474911     0.42480
C794        C  0.63901844  0.84003692  0.29160554    -0.07200
N795        N  0.83178465  0.83407450  0.14500690    -0.25950
H796        H  0.81251718  0.90544436  0.30028575     0.06630
N797        N  0.79682670  0.61233468  0.30482703    -0.47170
H798        H  0.60420305  0.81936216  0.31003089     0.06620
C799        C  0.64319980  0.88349033  0.08949855     0.42320
C800        C  0.66589705  0.63008706  0.30446454    -0.06700
Co801      Co  0.65061324  0.75704303  0.20069648     0.73820
N802        N  0.71119998  0.89757667  0.27214177    -0.46890
C803        C  0.86781554  0.59345833  0.10849509     0.42580
N804        N  0.60115672  0.68106460  0.12156502    -0.46880
Co805      Co  0.76764276  0.84565650  0.19331002     0.73890
C806        C  0.84829066  0.87286263  0.11274105    -0.07210
C807        C  0.87296346  0.66959436  0.30715532    -0.06770
N808        N  0.67809278  0.64401440  0.15757521    -0.26300
N809        N  0.89919888  0.79481130  0.28895313    -0.47060
H810        H  0.93343493  0.66333637  0.12163408     0.06590
C811        C  0.61815637  0.83465183  0.11387295    -0.07180
Cl812      Cl  0.75537588  0.74287285  0.20130958    -0.50180
C813        C  0.67219342  0.89063524  0.30580186     0.42350
H814        H  0.67930017  0.56131352  0.12524478     0.06560
N815        N  0.69629012  0.89070230  0.10779917    -0.46900
O816        O  0.93215222  0.93667288  0.05723461    -0.80400
O817        O  0.57827715  0.54737932  0.05919084    -0.80420
O818        O  0.55797247  0.92314786  0.05361726    -0.80430
O819        O  0.94922095  0.56315120  0.06369718    -0.80370
O820        O  0.64300306  0.95632525  0.02972635    -0.80490
O821        O  0.86230473  0.53101624  0.04317579    -0.80410
O822        O  0.53900209  0.63373580  0.04274555    -0.80400
O823        O  0.96871574  0.85419920  0.03122690    -0.80440
C824        C  0.93614195  0.88094772  0.05920174     1.09290
C825        C  0.57407110  0.60214150  0.06677604     1.09180
C826        C  0.61385684  0.92225608  0.05539987     1.09310
C827        C  0.89371948  0.56084983  0.06981708     1.09190
O828        O  0.89906289  0.55926215  0.95534911    -0.80400
O829        O  0.59605722  0.94895764  0.94234666    -0.80480
O830        O  0.94318961  0.90514010  0.94592552    -0.80410
O831        O  0.55308382  0.60236451  0.95185639    -0.80390
O832        O  0.62802890  0.54824410  0.96506004    -0.80440
O833        O  0.86969416  0.95609035  0.96655259    -0.80410
O834        O  0.95164982  0.63041533  0.97508611    -0.80370
O835        O  0.54750764  0.87362988  0.96024592    -0.80440
Co836      Co  0.92228670  0.50284699  0.00543253     1.51530
Co837      Co  0.57958441  0.49322578  0.99999468     1.51690
Co838      Co  0.49595665  0.92041891  0.99953859     1.51570
Co839      Co  0.50616043  0.57589770  0.00672622     1.51470
O840        O  0.49918782  0.50121839  0.97463904    -1.42330
C841        C  0.91140121  0.61112484  0.95091911     1.09220
C842        C  0.58413238  0.89778384  0.93487637     1.09310
C843        C  0.89109406  0.91899340  0.94037188     1.09250
C844        C  0.60457177  0.58987505  0.94325446     1.09220
C845        C  0.73047368  0.97154632  0.43340783    -0.05730
C846        C  0.74190071  0.99207512  0.38702885    -0.33160
C847        C  0.71566090  0.97075830  0.34706425     0.36090
C848        C  0.68230514  0.92131255  0.35049987    -0.06080
C849        C  0.67170241  0.89793146  0.39577732    -0.33050
C850        C  0.69300133  0.92413197  0.43713949     0.36000
H851        H  0.77057694  0.02651622  0.38017733     0.16370
O852        O  0.72401071  0.99839796  0.30386345    -0.60550
H853        H  0.64813392  0.85884204  0.39904023     0.16390
O854        O  0.67520895  0.90366833  0.48030660    -0.60650
H855        H  0.69365137  0.86535697  0.48431504     0.43380
H856        H  0.76571944  0.99550347  0.29745114     0.43340
C857        C  0.82906172  0.62484670  0.38673514    -0.05730
C858        C  0.77421816  0.63937868  0.40375161    -0.33160
C859        C  0.74973038  0.60721697  0.44099105     0.36090
C860        C  0.78144867  0.56162104  0.46254764    -0.06080
C861        C  0.84054071  0.55736138  0.45322041    -0.33050
C862        C  0.86389135  0.58697410  0.41417489     0.36000
H863        H  0.74690876  0.66876627  0.38307052     0.16370
O864        O  0.69232952  0.61378484  0.44993382    -0.60550
H865        H  0.86597978  0.52309397  0.46946017     0.16390
O866        O  0.91686221  0.57070549  0.39822225    -0.60650
H867        H  0.91028316  0.53630889  0.37917888     0.43380
H868        H  0.67250113  0.58946364  0.42675599     0.43340
C869        C  0.77692275  0.93324899  0.53933242    -0.05730
C870        C  0.83720646  0.92520503  0.54312604    -0.33160
C871        C  0.86178732  0.89681580  0.58394049     0.36090
C872        C  0.82596862  0.87000893  0.61753777    -0.06080
C873        C  0.76805309  0.86450821  0.60524536    -0.33050
C874        C  0.74303171  0.90047659  0.57012039     0.36000
H875        H  0.86507515  0.95006748  0.52063260     0.16370
O876        O  0.91890630  0.90310119  0.59409037    -0.60570
H877        H  0.74045741  0.84135399  0.62918133     0.16390
O878        O  0.68551893  0.91173328  0.57167962    -0.60650
H879        H  0.68007948  0.93835229  0.59816893     0.43380
H880        H  0.92175539  0.94042715  0.60971246     0.43340
C881        C  0.73246984  0.53077524  0.55842793    -0.05730
C882        C  0.67819051  0.55944080  0.55566443    -0.33160
C883        C  0.65498772  0.58717185  0.59583314     0.36090
C884        C  0.68381081  0.58183471  0.64007328    -0.06080
C885        C  0.73497224  0.54906079  0.64204663    -0.33050
C886        C  0.76225943  0.53062132  0.60184414     0.36000
H887        H  0.65292505  0.55845099  0.52316659     0.16370
O888        O  0.60323498  0.61558943  0.59207892    -0.60550
H889        H  0.75599840  0.53769827  0.67542829     0.16390
O890        O  0.81877482  0.01320435  0.60519027    -0.60650
H891        H  0.82304676  0.98865625  0.63438057     0.43380
H892        H  0.57409961  0.58663255  0.60019218     0.43340
C893        C  0.89552377  0.83606224  0.36708393    -0.05730
C894        C  0.94582830  0.86078505  0.38331867    -0.33160
C895        C  0.97591747  0.83686084  0.42268344     0.36090
C896        C  0.95476960  0.78821865  0.44718517    -0.06080
C897        C  0.90044274  0.76820768  0.43445837    -0.33050
C898        C  0.87061479  0.79215685  0.39484731     0.36000
H899        H  0.96570252  0.89414836  0.36202716     0.16370
O900        O  0.52863031  0.85795390  0.43398086    -0.60550
H901        H  0.88352486  0.73069396  0.45237243     0.16390
O902        O  0.82098565  0.76735349  0.37977858    -0.60650
H903        H  0.78954931  0.79098423  0.39293810     0.43380
H904        H  0.55211108  0.85309185  0.40512472     0.43340
C905        C  0.53677784  0.71689487  0.44888591    -0.05730
C906        C  0.51521843  0.67032403  0.42406389    -0.33160
C907        C  0.54533135  0.64671726  0.38604878     0.36090
C908        C  0.59804114  0.66945047  0.37224551    -0.06080
C909        C  0.62206033  0.71256672  0.39912550    -0.33050
C910        C  0.59251670  0.73602949  0.43739178     0.36000
H911        H  0.97251699  0.65544710  0.43174884     0.16370
O912        O  0.51987158  0.60616329  0.35903647    -0.60550
H913        H  0.66169646  0.73197450  0.38769961     0.16390
O914        O  0.61596814  0.78196853  0.45892410    -0.60650
H915        H  0.65305756  0.76800773  0.47290783     0.43380
H916        H  0.03709309  0.56928020  0.37057442     0.43340
C917        C  0.92386178  0.67121228  0.64411066    -0.05730
C918        C  0.96924267  0.70928123  0.64742826    -0.33160
C919        C  0.97896706  0.74787450  0.61052955     0.36090
C920        C  0.96791349  0.73266854  0.56325016    -0.06080
C921        C  0.92977944  0.68656784  0.55712297    -0.33050
C922        C  0.90372187  0.65947995  0.59763057     0.36000
H923        H  0.98776509  0.71906253  0.68176293     0.16370
O924        O  0.48771570  0.80389602  0.62137531    -0.60550
H925        H  0.91807796  0.67359381  0.52168092     0.16390
O926        O  0.85977094  0.62246137  0.59123638    -0.60650
H927        H  0.82458907  0.64681680  0.58910230     0.43380
H928        H  0.50903212  0.80504880  0.65204824     0.43340
C929        C  0.55397134  0.79290429  0.53976469    -0.05730
C930        C  0.59855442  0.75976258  0.56071963    -0.33160
C931        C  0.63067767  0.78069794  0.59848294     0.36090
C932        C  0.61592387  0.83408108  0.61732275    -0.06080
C933        C  0.57881191  0.87100570  0.59094799    -0.33050
C934        C  0.54986677  0.85140946  0.55041912     0.36000
H935        H  0.60383970  0.71548336  0.55143876     0.16370
O936        O  0.67033515  0.74542902  0.62130748    -0.60550
H937        H  0.56755758  0.91251478  0.60454424     0.16390
O938        O  0.00798449  0.88535409  0.52915219    -0.60650
H939        H  0.02844989  0.91797619  0.51433498     0.43380
H940        H  0.70422831  0.74514968  0.60026670     0.43340
loop_ 
_geom_bond_atom_site_label_1 
_geom_bond_atom_site_label_2 
_geom_bond_distance 
_geom_bond_site_symmetry_2 
_ccdc_geom_bond_type 
C1          C224   1.495       .  S
C1          C685   1.528   1_455  S
C1          C472   1.357   1_455  D
C2          C191   1.492       .  S
C2          C670   1.506       .  S
C2          C471   1.357       .  D
C3          C164   1.512       .  S
C3          C411   1.507       .  S
C3          C239   1.352       .  D
C4          C155   1.499       .  S
C4          C375   1.529   1_545  S
C4          C238   1.352   1_545  D
C5           N23   1.340       .  A
C5           C42   1.474       .  S
C5          C227   1.477       .  S
N6           N23   1.315       .  A
N6           N28   1.319       .  A
N6          Co43   2.042       .  S
C7           N32   1.325       .  A
C7           C45   1.439       .  S
C7           H52   1.082       .  S
H8           C49   1.073       .  S
C9           N33   1.370       .  A
C9           C13   1.489       .  S
C9           H38   1.066       .  S
Co10         N28   2.126       .  S
Co10         N18   2.065       .  S
Co10         N50   2.052       .  S
Co10         N26   2.129       .  S
Co10        Cl54   2.462       .  S
N11          C49   1.358       .  A
N11          N18   1.318       .  A
N11         Co12   2.142       .  S
Co12         N15   2.014       .  S
Co12         N32   2.039       .  S
Co12         N19   2.098       .  S
Co12        Cl54   2.444       .  S
C13          N51   1.334       .  A
C13         C212   1.506       .  S
N14          N21   1.313       .  A
N14          N44   1.299       .  A
N14         Co47   2.007       .  S
N15          N33   1.311       .  A
N15          N51   1.301       .  A
N16          C45   1.364       .  A
N16          N26   1.337       .  A
H17          C42   1.080       .  S
N18          N39   1.318       .  A
N19          N37   1.317       .  A
N19          N24   1.331       .  A
C20          N24   1.358       .  A
C20          C48   1.441       .  S
C20         C136   1.457       .  S
N21          C36   1.369       .  A
N21         Co43   2.154       .  S
C22          N50   1.329       .  A
C22          C25   1.443       .  S
C22          H56   1.082       .  S
C25          N46   1.358       .  A
C25         C137   1.465       .  S
N26          N32   1.318       .  A
N27          C53   1.336       .  A
N27          N29   1.320       .  A
N27         Co43   2.075       .  S
N28          C42   1.351       .  A
N29          N57   1.329       .  A
N29         Co47   2.096       .  S
H30          C53   1.082       .  S
H31          C48   1.082       .  S
N33         Co47   2.157       .  S
N34          N46   1.332       .  A
N34          N50   1.323       .  A
N34         Co43   2.127       .  S
C35          N39   1.346       .  A
C35          C49   1.472       .  S
C35         C167   1.495       .  S
C36          C55   1.497       .  S
C36          H40   1.081       .  S
N37          C48   1.325       .  A
N37         Co47   2.045       .  S
C41          N57   1.354       .  A
C41          C53   1.452       .  S
C41         C139   1.467       .  S
Co43        Cl54   2.446       .  S
N44          C55   1.331       .  A
C45         C138   1.473       .  S
Co47        Cl54   2.437       .  S
C55         C179   1.500       .  S
C58          N76   1.338       .  A
C58          C95   1.468       .  S
C58         C203   1.470       .  S
N59          N76   1.317       .  A
N59          N81   1.318       .  A
N59         Co96   2.039       .  S
C60          N85   1.335       .  A
C60          C98   1.448       .  S
C60         H105   1.082       .  S
H61         C102   1.079       .  S
C62          N86   1.353       .  A
C62          C66   1.464       .  S
C62          H91   1.076       .  S
Co63         N81   2.131       .  S
Co63         N71   2.063       .  S
Co63        N103   2.094       .  S
Co63         N79   2.131       .  S
Co63       Cl107   2.448       .  S
N64         C102   1.355       .  A
N64          N71   1.320       .  A
N64         Co65   2.119       .  S
Co65         N68   2.052       .  S
Co65         N85   2.068       .  S
Co65         N72   2.129       .  S
Co65       Cl107   2.469       .  S
C66         N104   1.339       .  A
C66         C188   1.470       .  S
N67          N74   1.313       .  A
N67          N97   1.299       .  A
N67        Co100   2.010       .  S
N68          N86   1.316       .  A
N68         N104   1.317       .  A
N69          C98   1.360       .  A
N69          N79   1.333       .  A
H70          C95   1.076       .  S
N71          N92   1.317       .  A
N72          N90   1.321       .  A
N72          N77   1.335       .  A
C73          N77   1.362       .  A
C73         C101   1.441       .  S
C73         C119   1.472       .  S
N74          C89   1.364       .  A
N74         Co96   2.126       .  S
C75         N103   1.343       .  A
C75          C78   1.459       .  S
C75         H109   1.082       .  S
C78          N99   1.356       .  A
C78         C120   1.480       .  S
N79          N85   1.324       .  A
N80         C106   1.336       .  A
N80          N82   1.322       .  A
N80         Co96   2.078       .  S
N81          C95   1.354       .  A
N82         N110   1.326       .  A
N82        Co100   2.082       .  S
H83         C106   1.082       .  S
H84         C101   1.082       .  S
N86        Co100   2.116       .  S
N87          N99   1.329       .  A
N87         N103   1.324       .  A
N87         Co96   2.116       .  S
C88          N92   1.340       .  A
C88         C102   1.465       .  S
C88         C152   1.478       .  S
C89         C108   1.487       .  S
C89          H93   1.081       .  S
N90         C101   1.330       .  A
N90        Co100   2.049       .  S
C94         N110   1.350       .  A
C94         C106   1.451       .  S
C94         C121   1.459       .  S
Co96       Cl107   2.458       .  S
N97         C108   1.327       .  A
C98         C122   1.473       .  S
Co100      Cl107   2.434       .  S
C108        C143   1.482       .  S
O111        C119   1.307       .  A
O111       Co366   2.105       .  S
O112        C120   1.308       .  A
O112       Co132   2.118   1_544  S
O113        C121   1.303       .  A
O113       Co133   2.088   1_454  S
O114        C122   1.309       .  A
O114       Co604   2.108       .  S
O115        C121   1.271       .  A
O115       Co367   1.877   1_554  S
O116        C122   1.272       .  A
O116       Co131   1.885       .  S
O117        C120   1.270       .  A
O117       Co134   1.881       .  S
O118        C119   1.269       .  A
O118       Co603   1.890   1_554  S
O123        C136   1.256       .  A
O123       Co131   1.969   1_556  S
O124        C137   1.258       .  A
O124       Co367   1.983       .  S
O125        C138   1.259       .  A
O125       Co603   1.978       .  S
O126        C139   1.258       .  A
O126       Co134   1.990   1_556  S
O127        C139   1.252       .  A
O127       Co132   1.975   1_545  S
O128        C138   1.254       .  A
O128       Co366   1.994   1_556  S
O129        C136   1.250       .  A
O129       Co604   1.974   1_556  S
O130        C137   1.250       .  A
O130       Co133   1.978   1_455  S
Co131       O346   2.105   1_545  S
Co131       O363   1.994   1_544  S
Co131       O605   1.998   1_554  S
Co132       O350   1.877   1_556  S
Co132       O359   1.983       .  S
Co132       O135   2.001   1_465  S
Co133       O588   1.890   1_556  S
Co133       O595   1.978       .  S
Co133       O370   2.003       .  S
Co134       O584   2.108   1_455  S
Co134       O599   1.974   1_454  S
Co134       O135   1.998   1_454  S
O135       Co601   1.998   1_556  S
O135       Co368   2.003   1_545  S
C140        C239   1.529       .  S
C140        C141   1.406       .  A
C140        C145   1.427       .  A
C141        H146   1.071       .  S
C141        C142   1.381       .  A
C142        C143   1.407       .  A
C142        O147   1.377       .  S
C143        C144   1.397       .  A
C144        H148   1.078       .  S
C144        C145   1.417       .  A
C145        O149   1.363       .  S
O147        H151   0.992       .  S
O149        H150   0.992       .  S
C152        C153   1.409       .  A
C152        C157   1.402       .  A
C153        H158   1.083       .  S
C153        C154   1.404       .  A
C154        C155   1.408       .  A
C154        O159   1.371       .  S
C155        C156   1.407       .  A
C156        H160   1.078       .  S
C156        C157   1.401       .  A
C157        O161   1.369       .  S
O159        H163   0.992       .  S
O161        H162   0.992       .  S
C164        C165   1.417       .  A
C164        C169   1.400       .  A
C165        H170   1.078       .  S
C165        C166   1.420       .  A
C166        C167   1.408       .  A
C166        O171   1.370       .  S
C167        C168   1.399       .  A
C168        H172   1.077       .  S
C168        C169   1.396       .  A
C169        O173   1.363       .  S
O171        H175   0.992       .  S
O173        H174   0.991       .  S
C176        C238   1.507   1_545  S
C176        C177   1.423       .  A
C176        C181   1.396       .  A
C177        H182   1.082       .  S
C177        C178   1.424       .  A
C178        C179   1.407       .  A
C178        O183   1.370       .  S
C179        C180   1.407       .  A
C180        H184   1.078       .  S
C180        C181   1.378       .  A
C181        O420   1.374       .  S
O183        H187   0.992       .  S
O185        C416   1.374       .  S
O185        H186   0.992       .  S
C188        C189   1.394       .  A
C188        C193   1.410       .  A
C189        H194   1.084       .  S
C189        C190   1.402       .  A
C190        C191   1.414       .  A
C190        O665   1.369       .  S
C191        C192   1.403       .  A
C192        H196   1.083       .  S
C192        C193   1.404       .  A
C193        O197   1.371       .  S
O195        C660   1.369   1_455  S
O195        H199   0.991       .  S
O197        H198   0.992       .  S
C200        C472   1.506   1_455  S
C200        C201   1.407       .  A
C200        C205   1.419       .  A
C201        H676   1.082   1_455  S
C201        C202   1.405       .  A
C202        C203   1.401       .  A
C202        O207   1.370       .  S
C203        C204   1.398       .  A
C204        H208   1.084       .  S
C204        C205   1.402       .  A
C205        O209   1.367       .  S
H206        C671   1.082       .  S
O207        H681   0.992       .  S
O209        H210   0.992       .  S
H211        O677   0.992       .  S
C212        C213   1.399       .  A
C212        C217   1.418       .  A
C213        H218   1.084       .  S
C213        C214   1.380       .  A
C214        C215   1.406       .  A
C214        O689   1.373       .  S
C215        C471   1.528       .  S
C215        C216   1.423       .  A
C216        H220   1.082       .  S
C216        C217   1.433       .  A
C217        O221   1.367       .  S
O219        C684   1.373       .  S
O219        H223   0.991   1_655  S
O221        H222   0.992       .  S
C224        C225   1.402       .  A
C224        C229   1.413       .  A
C225        H230   1.082       .  S
C225        C226   1.396       .  A
C226        C227   1.410       .  A
C226        O231   1.372       .  S
C227        C228   1.404       .  A
C228        H232   1.083       .  S
C228        C229   1.408       .  A
C229        O703   1.370       .  S
O231        H235   0.991       .  S
O233        C699   1.370       .  S
O233        H234   0.992       .  S
C236        C920   1.528   1_455  S
C236        C459   1.495       .  S
C236        C707   1.357   1_455  D
C237        C426   1.492       .  S
C237        C905   1.506       .  S
C237        C706   1.357       .  D
C238        C399   1.512       .  S
C239        C390   1.499       .  S
C240        N258   1.340       .  A
C240        C277   1.474       .  S
C240        C462   1.477       .  S
N241        N258   1.315       .  A
N241        N263   1.319       .  A
N241       Co278   2.042       .  S
C242        N267   1.325       .  A
C242        C280   1.439       .  S
C242        H287   1.082       .  S
H243        C284   1.073       .  S
C244        N268   1.370       .  A
C244        C248   1.489       .  S
C244        H273   1.066       .  S
Co245       N263   2.126       .  S
Co245       N253   2.065       .  S
Co245       N285   2.052       .  S
Co245       N261   2.129       .  S
Co245      Cl289   2.462       .  S
N246        C284   1.358       .  A
N246        N253   1.318       .  A
N246       Co247   2.142       .  S
Co247       N250   2.014       .  S
Co247       N267   2.039       .  S
Co247       N254   2.098       .  S
Co247      Cl289   2.444       .  S
C248        N286   1.334       .  A
C248        C447   1.506       .  S
N249        N256   1.313       .  A
N249        N279   1.299       .  A
N249       Co282   2.007       .  S
N250        N268   1.311       .  A
N250        N286   1.301       .  A
N251        C280   1.364       .  A
N251        N261   1.337       .  A
H252        C277   1.080       .  S
N253        N274   1.318       .  A
N254        N272   1.317       .  A
N254        N259   1.331       .  A
C255        N259   1.358       .  A
C255        C283   1.441       .  S
C255        C371   1.457       .  S
N256        C271   1.369       .  A
N256       Co278   2.154       .  S
C257        N285   1.329       .  A
C257        C260   1.443       .  S
C257        H291   1.082       .  S
C260        N281   1.358       .  A
C260        C372   1.465       .  S
N261        N267   1.318       .  A
N262        C288   1.336       .  A
N262        N264   1.320       .  A
N262       Co278   2.075       .  S
N263        C277   1.351       .  A
N264        N292   1.329       .  A
N264       Co282   2.096       .  S
H265        C288   1.082       .  S
H266        C283   1.082       .  S
N268       Co282   2.157       .  S
N269        N281   1.332       .  A
N269        N285   1.323       .  A
N269       Co278   2.127       .  S
C270        N274   1.346       .  A
C270        C284   1.472       .  S
C270        C402   1.495       .  S
C271        C290   1.497       .  S
C271        H275   1.081       .  S
N272        C283   1.325       .  A
N272       Co282   2.045       .  S
C276        N292   1.354       .  A
C276        C288   1.452       .  S
C276        C374   1.467       .  S
Co278      Cl289   2.446       .  S
N279        C290   1.331       .  A
C280        C373   1.473       .  S
Co282      Cl289   2.437       .  S
C290        C414   1.500       .  S
C293        N311   1.338       .  A
C293        C330   1.468       .  S
C293        C438   1.470       .  S
N294        N311   1.317       .  A
N294        N316   1.318       .  A
N294       Co331   2.039       .  S
C295        N320   1.335       .  A
C295        C333   1.448       .  S
C295        H340   1.082       .  S
H296        C337   1.079       .  S
C297        N321   1.353       .  A
C297        C301   1.464       .  S
C297        H326   1.076       .  S
Co298       N316   2.131       .  S
Co298       N306   2.063       .  S
Co298       N338   2.094       .  S
Co298       N314   2.131       .  S
Co298      Cl342   2.448       .  S
N299        C337   1.355       .  A
N299        N306   1.320       .  A
N299       Co300   2.119       .  S
Co300       N303   2.052       .  S
Co300       N320   2.068       .  S
Co300       N307   2.129       .  S
Co300      Cl342   2.469       .  S
C301        N339   1.339       .  A
C301        C423   1.470       .  S
N302        N309   1.313       .  A
N302        N332   1.299       .  A
N302       Co335   2.010       .  S
N303        N321   1.316       .  A
N303        N339   1.317       .  A
N304        C333   1.360       .  A
N304        N314   1.333       .  A
H305        C330   1.076       .  S
N306        N327   1.317       .  A
N307        N325   1.321       .  A
N307        N312   1.335       .  A
C308        N312   1.362       .  A
C308        C336   1.441       .  S
C308        C354   1.472       .  S
N309        C324   1.364       .  A
N309       Co331   2.126       .  S
C310        N338   1.343       .  A
C310        C313   1.459       .  S
C310        H344   1.082       .  S
C313        N334   1.356       .  A
C313        C355   1.480       .  S
N314        N320   1.324       .  A
N315        C341   1.336       .  A
N315        N317   1.322       .  A
N315       Co331   2.078       .  S
N316        C330   1.354       .  A
N317        N345   1.326       .  A
N317       Co335   2.082       .  S
H318        C341   1.082       .  S
H319        C336   1.082       .  S
N321       Co335   2.116       .  S
N322        N334   1.329       .  A
N322        N338   1.324       .  A
N322       Co331   2.116       .  S
C323        N327   1.340       .  A
C323        C337   1.465       .  S
C323        C387   1.478       .  S
C324        C343   1.487       .  S
C324        H328   1.081       .  S
N325        C336   1.330       .  A
N325       Co335   2.049       .  S
C329        N345   1.350       .  A
C329        C341   1.451       .  S
C329        C356   1.459       .  S
Co331      Cl342   2.458       .  S
N332        C343   1.327       .  A
C333        C357   1.473       .  S
Co335      Cl342   2.434       .  S
C343        C378   1.482       .  S
O346        C354   1.307       .  A
O347        C355   1.308       .  A
O347       Co367   2.118   1_554  S
O348        C356   1.303       .  A
O348       Co368   2.088   1_454  S
O349        C357   1.309       .  A
O349       Co839   2.108       .  S
O350        C356   1.271       .  A
O351        C357   1.272       .  A
O351       Co366   1.885       .  S
O352        C355   1.270       .  A
O352       Co369   1.881       .  S
O353        C354   1.269       .  A
O353       Co838   1.890   1_554  S
O358        C371   1.256       .  A
O358       Co366   1.969   1_556  S
O359        C372   1.258       .  A
O360        C373   1.259       .  A
O360       Co838   1.978       .  S
O361        C374   1.258       .  A
O361       Co369   1.990   1_556  S
O362        C374   1.252       .  A
O362       Co367   1.975       .  S
O363        C373   1.254       .  A
O364        C371   1.250       .  A
O364       Co839   1.974   1_556  S
O365        C372   1.250       .  A
O365       Co368   1.978   1_455  S
Co366       O840   1.998   1_554  S
Co367       O370   2.001   1_455  S
Co368       O823   1.890   1_556  S
Co368       O830   1.978       .  S
Co369       O819   2.108   1_455  S
Co369       O834   1.974   1_454  S
Co369       O370   1.998   1_454  S
O370       Co836   1.998   1_556  S
C375        C376   1.406       .  A
C375        C380   1.427       .  A
C376        H381   1.071   1_565  S
C376        C377   1.381       .  A
C377        C378   1.407       .  A
C377        O382   1.377       .  S
C378        C379   1.397       .  A
C379        H383   1.078       .  S
C379        C380   1.417       .  A
C380        O384   1.363       .  S
O382        H386   0.992       .  S
O384        H385   0.992       .  S
C387        C388   1.409       .  A
C387        C392   1.402       .  A
C388        H393   1.083       .  S
C388        C389   1.404       .  A
C389        C390   1.408       .  A
C389        O394   1.371       .  S
C390        C391   1.407       .  A
C391        H395   1.078       .  S
C391        C392   1.401       .  A
C392        O396   1.369       .  S
O394        H398   0.992       .  S
O396        H397   0.992       .  S
C399        C400   1.417       .  A
C399        C404   1.400       .  A
C400        H405   1.078       .  S
C400        C401   1.420       .  A
C401        C402   1.408       .  A
C401        O406   1.370       .  S
C402        C403   1.399       .  A
C403        H407   1.077       .  S
C403        C404   1.396       .  A
C404        O408   1.363       .  S
O406        H410   0.992       .  S
O408        H409   0.991       .  S
C411        C412   1.423       .  A
C411        C416   1.396       .  A
C412        H417   1.082       .  S
C412        C413   1.424       .  A
C413        C414   1.407       .  A
C413        O418   1.370       .  S
C414        C415   1.407       .  A
C415        H419   1.078       .  S
C415        C416   1.378       .  A
O418        H422   0.992       .  S
O420        H421   0.992   1_545  S
C423        C424   1.394       .  A
C423        C428   1.410       .  A
C424        H429   1.084       .  S
C424        C425   1.402       .  A
C425        C426   1.414       .  A
C425        O900   1.369       .  S
C426        C427   1.403       .  A
C427        H431   1.083       .  S
C427        C428   1.404       .  A
C428        O432   1.371       .  S
O430        C895   1.369   1_455  S
O430        H434   0.991       .  S
O432        H433   0.992       .  S
C435        C707   1.506   1_455  S
C435        C436   1.407       .  A
C435        C440   1.419       .  A
C436        H911   1.082   1_455  S
C436        C437   1.405       .  A
C437        C438   1.401       .  A
C437        O442   1.370       .  S
C438        C439   1.398       .  A
C439        H443   1.084       .  S
C439        C440   1.402       .  A
C440        O444   1.367       .  S
H441        C906   1.082       .  S
O442        H916   0.992       .  S
O444        H445   0.992       .  S
H446        O912   0.992       .  S
C447        C448   1.399       .  A
C447        C452   1.418       .  A
C448        H453   1.084       .  S
C448        C449   1.380       .  A
C449        C450   1.406       .  A
C449        O924   1.373       .  S
C450        C706   1.528       .  S
C450        C451   1.423       .  A
C451        H455   1.082       .  S
C451        C452   1.433       .  A
C452        O456   1.367       .  S
O454        C919   1.373       .  S
O454        H458   0.991   1_655  S
O456        H457   0.992       .  S
C459        C460   1.402       .  A
C459        C464   1.413       .  A
C460        H465   1.082       .  S
C460        C461   1.396       .  A
C461        C462   1.410       .  A
C461        O466   1.372       .  S
C462        C463   1.404       .  A
C463        H467   1.083       .  S
C463        C464   1.408       .  A
C464        O938   1.370       .  S
O466        H470   0.991       .  S
O468        C934   1.370       .  S
O468        H469   0.992       .  S
C471        C694   1.495       .  S
C472        C661   1.492       .  S
C473        C634   1.512       .  S
C473        C881   1.507       .  S
C473        C709   1.352       .  D
C474        C845   1.529   1_545  S
C474        C625   1.499       .  S
C474        C708   1.352   1_545  D
C475        N493   1.340       .  A
C475        C512   1.474       .  S
C475        C697   1.477       .  S
N476        N493   1.315       .  A
N476        N498   1.319       .  A
N476       Co513   2.042       .  S
C477        N502   1.325       .  A
C477        C515   1.439       .  S
C477        H522   1.082       .  S
H478        C519   1.073       .  S
C479        N503   1.370       .  A
C479        C483   1.489       .  S
C479        H508   1.066       .  S
Co480       N498   2.126       .  S
Co480       N488   2.065       .  S
Co480       N520   2.052       .  S
Co480       N496   2.129       .  S
Co480      Cl524   2.462       .  S
N481        C519   1.358       .  A
N481        N488   1.318       .  A
N481       Co482   2.142       .  S
Co482       N485   2.014       .  S
Co482       N502   2.039       .  S
Co482       N489   2.098       .  S
Co482      Cl524   2.444       .  S
C483        N521   1.334       .  A
C483        C682   1.506       .  S
N484        N491   1.313       .  A
N484        N514   1.299       .  A
N484       Co517   2.007       .  S
N485        N503   1.311       .  A
N485        N521   1.301       .  A
N486        C515   1.364       .  A
N486        N496   1.337       .  A
H487        C512   1.080       .  S
N488        N509   1.318       .  A
N489        N507   1.317       .  A
N489        N494   1.331       .  A
C490        N494   1.358       .  A
C490        C518   1.441       .  S
C490        C606   1.457       .  S
N491        C506   1.369       .  A
N491       Co513   2.154       .  S
C492        N520   1.329       .  A
C492        C495   1.443       .  S
C492        H526   1.082       .  S
C495        N516   1.358       .  A
C495        C607   1.465       .  S
N496        N502   1.318       .  A
N497        C523   1.336       .  A
N497        N499   1.320       .  A
N497       Co513   2.075       .  S
N498        C512   1.351       .  A
N499        N527   1.329       .  A
N499       Co517   2.096       .  S
H500        C523   1.082       .  S
H501        C518   1.082       .  S
N503       Co517   2.157       .  S
N504        N516   1.332       .  A
N504        N520   1.323       .  A
N504       Co513   2.127       .  S
C505        N509   1.346       .  A
C505        C519   1.472       .  S
C505        C637   1.495       .  S
C506        C525   1.497       .  S
C506        H510   1.081       .  S
N507        C518   1.325       .  A
N507       Co517   2.045       .  S
C511        N527   1.354       .  A
C511        C523   1.452       .  S
C511        C609   1.467       .  S
Co513      Cl524   2.446       .  S
N514        C525   1.331       .  A
C515        C608   1.473       .  S
Co517      Cl524   2.437       .  S
C525        C649   1.500       .  S
C528        N546   1.338       .  A
C528        C565   1.468       .  S
C528        C673   1.470       .  S
N529        N546   1.317       .  A
N529        N551   1.318       .  A
N529       Co566   2.039       .  S
C530        N555   1.335       .  A
C530        C568   1.448       .  S
C530        H575   1.082       .  S
H531        C572   1.079       .  S
C532        N556   1.353       .  A
C532        C536   1.464       .  S
C532        H561   1.076       .  S
Co533       N551   2.131       .  S
Co533       N541   2.063       .  S
Co533       N573   2.094       .  S
Co533       N549   2.131       .  S
Co533      Cl577   2.448       .  S
N534        C572   1.355       .  A
N534        N541   1.320       .  A
N534       Co535   2.119       .  S
Co535       N538   2.052       .  S
Co535       N555   2.068       .  S
Co535       N542   2.129       .  S
Co535      Cl577   2.469       .  S
C536        N574   1.339       .  A
C536        C658   1.470       .  S
N537        N544   1.313       .  A
N537        N567   1.299       .  A
N537       Co570   2.010       .  S
N538        N556   1.316       .  A
N538        N574   1.317       .  A
N539        C568   1.360       .  A
N539        N549   1.333       .  A
H540        C565   1.076       .  S
N541        N562   1.317       .  A
N542        N560   1.321       .  A
N542        N547   1.335       .  A
C543        N547   1.362       .  A
C543        C571   1.441       .  S
C543        C589   1.472       .  S
N544        C559   1.364       .  A
N544       Co566   2.126       .  S
C545        N573   1.343       .  A
C545        C548   1.459       .  S
C545        H579   1.082       .  S
C548        N569   1.356       .  A
C548        C590   1.480       .  S
N549        N555   1.324       .  A
N550        C576   1.336       .  A
N550        N552   1.322       .  A
N550       Co566   2.078       .  S
N551        C565   1.354       .  A
N552        N580   1.326       .  A
N552       Co570   2.082       .  S
H553        C576   1.082       .  S
H554        C571   1.082       .  S
N556       Co570   2.116       .  S
N557        N569   1.329       .  A
N557        N573   1.324       .  A
N557       Co566   2.116       .  S
C558        N562   1.340       .  A
C558        C572   1.465       .  S
C558        C622   1.478       .  S
C559        C578   1.487       .  S
C559        H563   1.081       .  S
N560        C571   1.330       .  A
N560       Co570   2.049       .  S
C564        N580   1.350       .  A
C564        C576   1.451       .  S
C564        C591   1.459       .  S
Co566      Cl577   2.458       .  S
N567        C578   1.327       .  A
C568        C592   1.473       .  S
Co570      Cl577   2.434       .  S
C578        C613   1.482       .  S
O581        C589   1.307       .  A
O581       Co836   2.105       .  S
O582        C590   1.308       .  A
O582       Co602   2.118   1_544  S
O583        C591   1.303       .  A
O583       Co603   2.088   1_554  S
O584        C592   1.309       .  A
O585        C591   1.271       .  A
O585       Co837   1.877   1_554  S
O586        C592   1.272       .  A
O586       Co601   1.885       .  S
O587        C590   1.270       .  A
O587       Co604   1.881       .  S
O588        C589   1.269       .  A
O593        C606   1.256       .  A
O593       Co601   1.969   1_556  S
O594        C607   1.258       .  A
O594       Co837   1.983       .  S
O595        C608   1.259       .  A
O596        C609   1.258       .  A
O596       Co604   1.990   1_556  S
O597        C609   1.252       .  A
O597       Co602   1.975   1_545  S
O598        C608   1.254       .  A
O598       Co836   1.994   1_556  S
O599        C606   1.250       .  A
O600        C607   1.250       .  A
O600       Co603   1.978       .  S
Co601       O816   2.105   1_545  S
Co601       O833   1.994   1_544  S
Co602       O820   1.877   1_556  S
Co602       O829   1.983       .  S
Co602       O605   2.001   1_565  S
Co603       O840   2.003       .  S
Co604       O605   1.998   1_554  S
O605       Co838   2.003   1_545  S
C610        C709   1.529       .  S
C610        C611   1.406       .  A
C610        C615   1.427       .  A
C611        H616   1.071       .  S
C611        C612   1.381       .  A
C612        C613   1.407       .  A
C612        O617   1.377       .  S
C613        C614   1.397       .  A
C614        H618   1.078       .  S
C614        C615   1.417       .  A
C615        O619   1.363       .  S
O617        H621   0.992       .  S
O619        H620   0.992       .  S
C622        C623   1.409       .  A
C622        C627   1.402       .  A
C623        H628   1.083       .  S
C623        C624   1.404       .  A
C624        C625   1.408       .  A
C624        O629   1.371       .  S
C625        C626   1.407       .  A
C626        H630   1.078       .  S
C626        C627   1.401       .  A
C627        O631   1.369       .  S
O629        H633   0.992       .  S
O631        H632   0.992       .  S
C634        C635   1.417       .  A
C634        C639   1.400       .  A
C635        H640   1.078       .  S
C635        C636   1.420       .  A
C636        C637   1.408       .  A
C636        O641   1.370       .  S
C637        C638   1.399       .  A
C638        H642   1.077       .  S
C638        C639   1.396       .  A
C639        O643   1.363       .  S
O641        H645   0.992       .  S
O643        H644   0.991       .  S
C646        C708   1.507   1_545  S
C646        C647   1.423       .  A
C646        C651   1.396       .  A
C647        H652   1.082       .  S
C647        C648   1.424       .  A
C648        C649   1.407       .  A
C648        O653   1.370       .  S
C649        C650   1.407       .  A
C650        H654   1.078       .  S
C650        C651   1.378       .  A
C651        O890   1.374       .  S
O653        H657   0.992       .  S
O655        C886   1.374       .  S
O655        H656   0.992       .  S
C658        C659   1.394       .  A
C658        C663   1.410       .  A
C659        H664   1.084       .  S
C659        C660   1.402       .  A
C660        C661   1.414       .  A
C661        C662   1.403       .  A
C662        H666   1.083       .  S
C662        C663   1.404       .  A
C663        O667   1.371       .  S
O665        H669   0.991       .  S
O667        H668   0.992       .  S
C670        C671   1.407       .  A
C670        C675   1.419       .  A
C671        C672   1.405       .  A
C672        C673   1.401       .  A
C672        O677   1.370       .  S
C673        C674   1.398       .  A
C674        H678   1.084       .  S
C674        C675   1.402       .  A
C675        O679   1.367       .  S
O679        H680   0.992       .  S
C682        C683   1.399       .  A
C682        C687   1.418       .  A
C683        H688   1.084       .  S
C683        C684   1.380       .  A
C684        C685   1.406       .  A
C685        C686   1.423       .  A
C686        H690   1.082       .  S
C686        C687   1.433       .  A
C687        O691   1.367       .  S
O689        H693   0.991       .  S
O691        H692   0.992       .  S
C694        C695   1.402       .  A
C694        C699   1.413       .  A
C695        H700   1.082       .  S
C695        C696   1.396       .  A
C696        C697   1.410       .  A
C696        O701   1.372       .  S
C697        C698   1.404       .  A
C698        H702   1.083       .  S
C698        C699   1.408       .  A
O701        H705   0.991       .  S
O703        H704   0.992       .  S
C706        C929   1.495       .  S
C707        C896   1.492       .  S
C708        C869   1.512       .  S
C709        C860   1.499       .  S
C710        N728   1.340       .  A
C710        C747   1.474       .  S
C710        C932   1.477       .  S
N711        N728   1.315       .  A
N711        N733   1.319       .  A
N711       Co748   2.042       .  S
C712        N737   1.325       .  A
C712        C750   1.439       .  S
C712        H757   1.082       .  S
H713        C754   1.073       .  S
C714        N738   1.370       .  A
C714        C718   1.489       .  S
C714        H743   1.066       .  S
Co715       N733   2.126       .  S
Co715       N723   2.065       .  S
Co715       N755   2.052       .  S
Co715       N731   2.129       .  S
Co715      Cl759   2.462       .  S
N716        C754   1.358       .  A
N716        N723   1.318       .  A
N716       Co717   2.142       .  S
Co717       N720   2.014       .  S
Co717       N737   2.039       .  S
Co717       N724   2.098       .  S
Co717      Cl759   2.444       .  S
C718        N756   1.334       .  A
C718        C917   1.506       .  S
N719        N726   1.313       .  A
N719        N749   1.299       .  A
N719       Co752   2.007       .  S
N720        N738   1.311       .  A
N720        N756   1.301       .  A
N721        C750   1.364       .  A
N721        N731   1.337       .  A
H722        C747   1.080       .  S
N723        N744   1.318       .  A
N724        N742   1.317       .  A
N724        N729   1.331       .  A
C725        N729   1.358       .  A
C725        C753   1.441       .  S
C725        C841   1.457       .  S
N726        C741   1.369       .  A
N726       Co748   2.154       .  S
C727        N755   1.329       .  A
C727        C730   1.443       .  S
C727        H761   1.082       .  S
C730        N751   1.358       .  A
C730        C842   1.465       .  S
N731        N737   1.318       .  A
N732        C758   1.336       .  A
N732        N734   1.320       .  A
N732       Co748   2.075       .  S
N733        C747   1.351       .  A
N734        N762   1.329       .  A
N734       Co752   2.096       .  S
H735        C758   1.082       .  S
H736        C753   1.082       .  S
N738       Co752   2.157       .  S
N739        N751   1.332       .  A
N739        N755   1.323       .  A
N739       Co748   2.127       .  S
C740        N744   1.346       .  A
C740        C754   1.472       .  S
C740        C872   1.495       .  S
C741        C760   1.497       .  S
C741        H745   1.081       .  S
N742        C753   1.325       .  A
N742       Co752   2.045       .  S
C746        N762   1.354       .  A
C746        C758   1.452       .  S
C746        C844   1.467       .  S
Co748      Cl759   2.446       .  S
N749        C760   1.331       .  A
C750        C843   1.473       .  S
Co752      Cl759   2.437       .  S
C760        C884   1.500       .  S
C763        N781   1.338       .  A
C763        C800   1.468       .  S
C763        C908   1.470       .  S
N764        N781   1.317       .  A
N764        N786   1.318       .  A
N764       Co801   2.039       .  S
C765        N790   1.335       .  A
C765        C803   1.448       .  S
C765        H810   1.082       .  S
H766        C807   1.079       .  S
C767        N791   1.353       .  A
C767        C771   1.464       .  S
C767        H796   1.076       .  S
Co768       N786   2.131       .  S
Co768       N776   2.063       .  S
Co768       N808   2.094       .  S
Co768       N784   2.131       .  S
Co768      Cl812   2.448       .  S
N769        C807   1.355       .  A
N769        N776   1.320       .  A
N769       Co770   2.119       .  S
Co770       N773   2.052       .  S
Co770       N790   2.068       .  S
Co770       N777   2.129       .  S
Co770      Cl812   2.469       .  S
C771        N809   1.339       .  A
C771        C893   1.470       .  S
N772        N779   1.313       .  A
N772        N802   1.299       .  A
N772       Co805   2.010       .  S
N773        N791   1.316       .  A
N773        N809   1.317       .  A
N774        C803   1.360       .  A
N774        N784   1.333       .  A
H775        C800   1.076       .  S
N776        N797   1.317       .  A
N777        N795   1.321       .  A
N777        N782   1.335       .  A
C778        N782   1.362       .  A
C778        C806   1.441       .  S
C778        C824   1.472       .  S
N779        C794   1.364       .  A
N779       Co801   2.126       .  S
C780        N808   1.343       .  A
C780        C783   1.459       .  S
C780        H814   1.082       .  S
C783        N804   1.356       .  A
C783        C825   1.480       .  S
N784        N790   1.324       .  A
N785        C811   1.336       .  A
N785        N787   1.322       .  A
N785       Co801   2.078       .  S
N786        C800   1.354       .  A
N787        N815   1.326       .  A
N787       Co805   2.082       .  S
H788        C811   1.082       .  S
H789        C806   1.082       .  S
N791       Co805   2.116       .  S
N792        N804   1.329       .  A
N792        N808   1.324       .  A
N792       Co801   2.116       .  S
C793        N797   1.340       .  A
C793        C807   1.465       .  S
C793        C857   1.478       .  S
C794        C813   1.487       .  S
C794        H798   1.081       .  S
N795        C806   1.330       .  A
N795       Co805   2.049       .  S
C799        N815   1.350       .  A
C799        C811   1.451       .  S
C799        C826   1.459       .  S
Co801      Cl812   2.458       .  S
N802        C813   1.327       .  A
C803        C827   1.473       .  S
Co805      Cl812   2.434       .  S
C813        C848   1.482       .  S
O816        C824   1.307       .  A
O817        C825   1.308       .  A
O817       Co837   2.118   1_554  S
O818        C826   1.303       .  A
O818       Co838   2.088   1_554  S
O819        C827   1.309       .  A
O820        C826   1.271       .  A
O821        C827   1.272       .  A
O821       Co836   1.885       .  S
O822        C825   1.270       .  A
O822       Co839   1.881       .  S
O823        C824   1.269       .  A
O828        C841   1.256       .  A
O828       Co836   1.969   1_556  S
O829        C842   1.258       .  A
O830        C843   1.259       .  A
O831        C844   1.258       .  A
O831       Co839   1.990   1_556  S
O832        C844   1.252       .  A
O832       Co837   1.975       .  S
O833        C843   1.254       .  A
O834        C841   1.250       .  A
O835        C842   1.250       .  A
O835       Co838   1.978       .  S
Co837       O840   2.001       .  S
Co839       O840   1.998   1_554  S
C845        C846   1.406       .  A
C845        C850   1.427       .  A
C846        H851   1.071   1_565  S
C846        C847   1.381       .  A
C847        C848   1.407       .  A
C847        O852   1.377       .  S
C848        C849   1.397       .  A
C849        H853   1.078       .  S
C849        C850   1.417       .  A
C850        O854   1.363       .  S
O852        H856   0.992       .  S
O854        H855   0.992       .  S
C857        C858   1.409       .  A
C857        C862   1.402       .  A
C858        H863   1.083       .  S
C858        C859   1.404       .  A
C859        C860   1.408       .  A
C859        O864   1.371       .  S
C860        C861   1.407       .  A
C861        H865   1.078       .  S
C861        C862   1.401       .  A
C862        O866   1.369       .  S
O864        H868   0.992       .  S
O866        H867   0.992       .  S
C869        C870   1.417       .  A
C869        C874   1.400       .  A
C870        H875   1.078       .  S
C870        C871   1.420       .  A
C871        C872   1.408       .  A
C871        O876   1.370       .  S
C872        C873   1.399       .  A
C873        H877   1.077       .  S
C873        C874   1.396       .  A
C874        O878   1.363       .  S
O876        H880   0.992       .  S
O878        H879   0.991       .  S
C881        C882   1.423       .  A
C881        C886   1.396       .  A
C882        H887   1.082       .  S
C882        C883   1.424       .  A
C883        C884   1.407       .  A
C883        O888   1.370       .  S
C884        C885   1.407       .  A
C885        H889   1.078       .  S
C885        C886   1.378       .  A
O888        H892   0.992       .  S
O890        H891   0.992   1_545  S
C893        C894   1.394       .  A
C893        C898   1.410       .  A
C894        H899   1.084       .  S
C894        C895   1.402       .  A
C895        C896   1.414       .  A
C896        C897   1.403       .  A
C897        H901   1.083       .  S
C897        C898   1.404       .  A
C898        O902   1.371       .  S
O900        H904   0.991       .  S
O902        H903   0.992       .  S
C905        C906   1.407       .  A
C905        C910   1.419       .  A
C906        C907   1.405       .  A
C907        C908   1.401       .  A
C907        O912   1.370       .  S
C908        C909   1.398       .  A
C909        H913   1.084       .  S
C909        C910   1.402       .  A
C910        O914   1.367       .  S
O914        H915   0.992       .  S
C917        C918   1.399       .  A
C917        C922   1.418       .  A
C918        H923   1.084       .  S
C918        C919   1.380       .  A
C919        C920   1.406       .  A
C920        C921   1.423       .  A
C921        H925   1.082       .  S
C921        C922   1.433       .  A
C922        O926   1.367       .  S
O924        H928   0.991       .  S
O926        H927   0.992       .  S
C929        C930   1.402       .  A
C929        C934   1.413       .  A
C930        H935   1.082       .  S
C930        C931   1.396       .  A
C931        C932   1.410       .  A
C931        O936   1.372       .  S
C932        C933   1.404       .  A
C933        H937   1.083       .  S
C933        C934   1.408       .  A
O936        H940   0.991       .  S
O938        H939   0.992       .  S
