geometry optimzed in LAMMPS
_audit_creation_date              2020-11-30 
_audit_creation_method            'lammps2cif' 
_symmetry_space_group_name_H-M    'P1' 
_symmetry_Int_Tables_number       1 
_symmetry_cell_setting            triclinic 
loop_ 
_symmetry_equiv_pos_as_xyz 
  x,y,z 
_cell_length_a                    32.67795160024268 
_cell_length_b                    32.46875856047105 
_cell_length_c                    73.26575442680793 
_cell_angle_alpha                 90.2322225601033 
_cell_angle_beta                  90.07972717672395 
_cell_angle_gamma                 90.24730697476828 
loop_ 
_atom_site_label 
_atom_site_type_symbol 
_atom_site_fract_x 
_atom_site_fract_y 
_atom_site_fract_z 
_atom_site_charge 
C1          C  0.33697998  0.50086554  0.33098489     0.03030
C2          C  0.36728517  0.00084414  0.34483010    -0.13110
C3          C  0.40888659  0.99385092  0.34051356     0.00540
C4          C  0.41988260  0.98779255  0.32225846    -0.11640
C5          C  0.39075620  0.49051135  0.30813118     0.03030
C6          C  0.34930631  0.49611979  0.31263847    -0.11060
H7          H  0.35849017  0.00616490  0.35888975     0.08620
H8          H  0.45165792  0.98227536  0.31902059     0.06150
H9          H  0.32659925  0.49682415  0.30185134     0.06000
C10         C  0.15985682  0.50753867  0.33405010     0.03030
C11         C  0.13076215  0.01566172  0.34797229    -0.13110
C12         C  0.08863537  0.01836232  0.34356890     0.00540
C13         C  0.07667285  0.01376474  0.32550696    -0.11640
C14         C  0.10422879  0.50180831  0.31181630     0.03030
C15         C  0.14587487  0.49844242  0.31626216    -0.11060
H16         H  0.14072584  0.01951830  0.36197777     0.08620
H17         H  0.04448287  0.01634465  0.32248379     0.06150
H18         H  0.16765757  0.48937856  0.30588751     0.06000
O19         O  0.03322664  0.04766451  0.36129855    -0.74520
O20         O  0.44937918  0.03352164  0.39830095    -0.74550
O21         O  0.02920400  0.05025743  0.39815386    -0.74610
O22         O  0.44911075  0.03401474  0.36094364    -0.74660
O23         O  0.46260016  0.46682319  0.35986626    -0.74590
O24         O  0.03778181  0.48260291  0.40019016    -0.74570
O25         O  0.45880667  0.46560674  0.39706602    -0.74540
O26         O  0.04612294  0.48051373  0.36337253    -0.74610
Ni27       Ni  0.48969206  0.04380585  0.37940068     1.25410
Ni28       Ni  0.50182353  0.47148269  0.37987220     1.25360
C29         C  0.05526505  0.01611235  0.35723039     0.87660
C30         C  0.44360832  0.99717797  0.40483010     0.87590
C31         C  0.04261292  0.01911602  0.40675150     0.87620
C32         C  0.44166061  0.99809908  0.35452918     0.87790
C33         C  0.32679313  0.50078653  0.66057809     0.03030
C34         C  0.35483140  0.00603825  0.64612733    -0.13110
C35         C  0.39537630  0.01738456  0.65004847     0.00540
C36         C  0.40577310  0.02632192  0.66801950    -0.11640
C37         C  0.38239001  0.51033821  0.68271813     0.03030
C38         C  0.34160734  0.49892118  0.67872873    -0.11060
H39         H  0.34487832  0.00283376  0.63208411     0.08620
H40         H  0.43585975  0.03950520  0.67037091     0.06150
H41         H  0.32082161  0.48906485  0.68919958     0.06000
O42         O  0.44124171  0.48015533  0.63072254    -0.74520
O43         O  0.02883747  0.47406296  0.59571116    -0.74550
O44         O  0.02603654  0.47457995  0.63286081    -0.74610
O45         O  0.44838604  0.47872469  0.59371995    -0.74660
O46         O  0.45037886  0.04724462  0.59447469    -0.74590
O47         O  0.03220172  0.04296132  0.63239552    -0.74570
O48         O  0.03083550  0.04247984  0.59538072    -0.74540
O49         O  0.44739808  0.04853137  0.63172037    -0.74610
Ni50       Ni  0.48586696  0.47442259  0.61356370     1.25410
Ni51       Ni  0.49029178  0.04773875  0.61376362     1.25360
C52         C  0.42893646  0.01541774  0.63647750     0.87660
C53         C  0.04064781  0.00778104  0.58834716     0.87590
C54         C  0.04406008  0.00769703  0.63818707     0.87620
C55         C  0.44024589  0.01350672  0.58647137     0.87790
C56         C  0.15121735  0.49542848  0.65857269     0.03030
C57         C  0.11994998  0.00390370  0.64574294    -0.13110
C58         C  0.07855553  0.00444526  0.65136398     0.00540
C59         C  0.06969434  0.99846027  0.66979621    -0.11640
C60         C  0.10017640  0.48775811  0.68239667     0.03030
C61         C  0.14075564  0.48550030  0.67660002    -0.11060
H62         H  0.12774322  0.01005454  0.63165175     0.08620
H63         H  0.03865866  0.00225223  0.67441150     0.06150
H64         H  0.16452984  0.47779625  0.68632335     0.06000
C65         C  0.33406450  0.05101131  0.49613624     0.03030
C66         C  0.35437953  0.04439176  0.47975354    -0.13110
C67         C  0.38439090  0.01366609  0.47850387     0.00540
C68         C  0.39924711  0.99682108  0.49522966    -0.11640
C69         C  0.38514694  0.01239911  0.51213384     0.03030
C70         C  0.35185741  0.03883566  0.51238203    -0.11060
H71         H  0.34241931  0.05901688  0.46765271     0.08620
H72         H  0.42052836  0.97159311  0.49548999     0.06150
H73         H  0.33722695  0.04651925  0.52523387     0.06000
C74         C  0.99240910  0.33325363  0.83408041     0.03030
C75         C  0.99591285  0.36311970  0.84809175    -0.13110
C76         C  0.99499827  0.40541211  0.84372488     0.00540
C77         C  0.99218508  0.41740168  0.82554870    -0.11640
C78         C  0.98720537  0.38825911  0.81158016     0.03030
C79         C  0.98632815  0.34621540  0.81597853    -0.11060
H80         H  0.99927255  0.35356395  0.86215831     0.08620
H81         H  0.99278018  0.44996648  0.82224499     0.06150
H82         H  0.98204890  0.32347673  0.80526963     0.06000
C83         C  0.49791667  0.49202492  0.74613755    -0.02580
C84         C  0.99642219  0.15574647  0.83228675     0.03030
C85         C  0.99692124  0.14212120  0.81398475    -0.13110
C86         C  0.99464082  0.09990217  0.80980775     0.00540
C87         C  0.99117432  0.07137041  0.82407842    -0.11640
C88         C  0.99354533  0.08396740  0.84227306     0.03030
C89         C  0.99567989  0.12633317  0.84644459    -0.11060
H90         H  0.00008757  0.16432889  0.80307340     0.08620
H91         H  0.98953627  0.03870120  0.82093828     0.06150
H92         H  0.99678252  0.13636663  0.86055704     0.06000
C93         C  0.03429040  0.33267068  0.16257438     0.03030
C94         C  0.03471672  0.36325821  0.14882866    -0.13110
C95         C  0.03507541  0.40552562  0.15358800     0.00540
C96         C  0.03583477  0.41665971  0.17203577    -0.11640
C97         C  0.03307112  0.38668097  0.18579192     0.03030
C98         C  0.03277731  0.34492793  0.18100522    -0.11060
H99         H  0.03364571  0.35424324  0.13458505     0.08620
H100        H  0.03417940  0.44901611  0.17573403     0.06150
H101        H  0.02913369  0.32193675  0.19157579     0.06000
O102        O  0.46031195  0.03628319  0.86177836    -0.74520
O103        O  0.46119289  0.45860240  0.90065741    -0.74550
O104        O  0.46094507  0.03949331  0.89875047    -0.74610
O105        O  0.46113006  0.45199813  0.86360905    -0.74660
O106        O  0.02934697  0.45421554  0.86271331    -0.74590
O107        O  0.02865383  0.03618763  0.90035077    -0.74570
O108        O  0.02892731  0.45524856  0.89986364    -0.74540
O109        O  0.02848203  0.03919485  0.86291534    -0.74610
Ni110      Ni  0.45849590  0.49648673  0.88096135     1.25410
Ni111      Ni  0.03139322  0.49635984  0.88118336     1.25360
C112        C  0.99420167  0.05203684  0.85653628     0.87660
C113        C  0.49499732  0.44723581  0.90782973     0.87590
C114        C  0.49438640  0.04730731  0.90717013     0.87620
C115        C  0.99529524  0.43815757  0.85765970     0.87790
C116        C  0.01081336  0.15657543  0.16230215     0.03030
C117        C  0.00969005  0.12655183  0.14827932    -0.13110
C118        C  0.99779123  0.08567838  0.15223547     0.00540
C119        C  0.98555419  0.07578993  0.16989517    -0.11640
C120        C  0.99323750  0.10322961  0.18435122     0.03030
C121        C  0.00440050  0.14407130  0.18046834    -0.11060
H122        H  0.01842396  0.13481351  0.13451035     0.08620
H123        H  0.97774570  0.04401733  0.17295974     0.06150
H124        H  0.01046884  0.16549418  0.19152552     0.06000
O125        O  0.04014788  0.04461943  0.13302486    -0.74520
O126        O  0.05655499  0.46020372  0.09711164    -0.74550
O127        O  0.03897725  0.03914787  0.09620853    -0.74610
O128        O  0.05805257  0.46104973  0.13447277    -0.74660
O129        O  0.99176569  0.44449673  0.13401398    -0.74590
O130        O  0.47212575  0.02760610  0.09809799    -0.74570
O131        O  0.48935552  0.44796792  0.09683106    -0.74540
O132        O  0.97410390  0.02768590  0.13495551    -0.74610
Ni133      Ni  0.05087843  0.50174445  0.11548244     1.25410
Ni134      Ni  0.97949268  0.48629300  0.11625351     1.25360
C135        C  0.00412847  0.05139156  0.13922317     0.87660
C136        C  0.02482191  0.44437966  0.08956875     0.87590
C137        C  0.00277875  0.04322743  0.08977547     0.87620
C138        C  0.02821213  0.43829701  0.13985545     0.87790
C139        C  0.46030284  0.33413430  0.99944709     0.03030
C140        C  0.46501488  0.35538513  0.01576733    -0.13110
C141        C  0.48887152  0.39150492  0.01643532     0.00540
C142        C  0.49105998  0.41388099  0.99965067    -0.11640
C143        C  0.48011851  0.39459309  0.98289356     0.03030
C144        C  0.46792469  0.35356422  0.98310980    -0.11060
H145        H  0.45442637  0.34045856  0.02800838     0.08620
H146        H  0.49983627  0.44560072  0.99903452     0.06150
H147        H  0.46538641  0.33617521  0.97046444     0.06000
C148        C  0.47663073  0.16045213  0.99894344     0.03030
C149        C  0.48234994  0.14011725  0.98248962    -0.13110
C150        C  0.49406562  0.09890279  0.98228063     0.00540
C151        C  0.50014983  0.07782704  0.99886325    -0.11640
C152        C  0.49411450  0.09900365  0.01550828     0.03030
C153        C  0.48183216  0.14007073  0.01534701    -0.11060
H154        H  0.47844830  0.15670151  0.96977864     0.08620
H155        H  0.50901440  0.04572788  0.99880592     0.06150
H156        H  0.47766416  0.15671661  0.02808054     0.06000
C157        C  0.49949891  0.49466953  0.24674366    -0.02580
C158        C  0.09905178  0.03034779  0.51475627     0.03030
C159        C  0.07717478  0.02834783  0.49805347    -0.13110
C160        C  0.09822671  0.03429302  0.48135591     0.00540
C161        C  0.13941768  0.04544920  0.48166057    -0.11640
C162        C  0.16069151  0.04641092  0.49799244     0.03030
C163        C  0.14118769  0.03756966  0.51427541    -0.11060
H164        H  0.04473913  0.02176738  0.49804683     0.08620
H165        H  0.15577395  0.05049377  0.46897522     0.06150
H166        H  0.15918860  0.03621059  0.52671538     0.06000
C167        C  0.00257677  0.27210434  0.99900476    -0.01940
C168        C  0.46316486  0.28958169  0.99968404     0.07740
C169        C  0.42789066  0.26481913  0.99985488    -0.02060
C170        C  0.43205673  0.22192390  0.99952242    -0.02060
C171        C  0.47141917  0.20468673  0.99906203     0.07870
C172        C  0.00664522  0.22952329  0.99879149    -0.02250
Br173      Br  0.06051977  0.20519560  0.99798502    -0.00800
Br174      Br  0.05125644  0.30633152  0.99798914    -0.00870
Br175      Br  0.38443108  0.18670280  0.99944903    -0.00830
Br176      Br  0.37453823  0.28979826  0.00013492    -0.00820
C177        C  0.00871414  0.37358682  0.04937746    -0.01940
C178        C  0.50985444  0.40244256  0.03459641     0.07740
C179        C  0.03250985  0.43933626  0.03815939    -0.02060
C180        C  0.04263794  0.45011430  0.05637914    -0.02060
C181        C  0.02762479  0.42640451  0.07107214     0.07870
C182        C  0.01173471  0.38730867  0.06748267    -0.02250
Br183      Br  0.99778428  0.35114602  0.08741174    -0.00800
Br184      Br  0.51835419  0.31523634  0.04577458    -0.00870
Br185      Br  0.07880500  0.49618679  0.06105999    -0.00830
Br186      Br  0.55684155  0.47270256  0.01929993    -0.00820
C187        C  0.46770371  0.04403223  0.05905765    -0.01940
C188        C  0.99756330  0.06084788  0.07121563     0.07740
C189        C  0.02754428  0.08817203  0.06424647    -0.02060
C190        C  0.02946360  0.09600032  0.04543142    -0.02060
C191        C  0.49926685  0.08008546  0.03359384     0.07870
C192        C  0.46822870  0.05453459  0.04045617    -0.02250
Br193      Br  0.42537486  0.03515579  0.02432152    -0.00800
Br194      Br  0.42616646  0.00529072  0.06689855    -0.00870
Br195      Br  0.07391610  0.12844441  0.03565030    -0.00830
Br196      Br  0.06549301  0.11654298  0.08028268    -0.00820
C197        C  0.03249605  0.05412503  0.20283924    -0.01940
C198        C  0.00215652  0.08443339  0.20231665     0.07740
C199        C  0.48277541  0.09557581  0.21872172    -0.02060
C200        C  0.48856048  0.07108406  0.23448354    -0.02060
C201        C  0.00613547  0.03119621  0.23275416     0.07870
C202        C  0.03470705  0.02738502  0.21771682    -0.02250
Br203      Br  0.08405525  0.99406126  0.21819519    -0.00800
Br204      Br  0.07322877  0.05161312  0.18346643    -0.00870
Br205      Br  0.48337123  0.09789174  0.25794201    -0.00830
Br206      Br  0.44923848  0.14412062  0.21980088    -0.00820
C207        C  0.02685094  0.43684362  0.93917918    -0.01940
C208        C  0.49407993  0.42990580  0.92666921     0.07740
C209        C  0.45685429  0.41364156  0.93341344    -0.02060
C210        C  0.45082396  0.40937984  0.95225855    -0.02060
C211        C  0.48402998  0.41355558  0.96451612     0.07870
C212        C  0.02242829  0.42618633  0.95774460    -0.02250
Br213      Br  0.06995028  0.42619537  0.97343760    -0.00800
Br214      Br  0.07790801  0.46216949  0.93183111    -0.00870
Br215      Br  0.39643862  0.39728500  0.96128063    -0.00830
Br216      Br  0.41448468  0.39375865  0.91705244    -0.00820
C217        C  0.46052436  0.05133040  0.93805397    -0.01940
C218        C  0.49329740  0.06297896  0.92628095     0.07740
C219        C  0.02805822  0.08291168  0.93389941    -0.02060
C220        C  0.03032884  0.09013217  0.95281981    -0.02060
C221        C  0.49738422  0.07940090  0.96420513     0.07870
C222        C  0.46260315  0.06015650  0.95681856    -0.02250
Br223      Br  0.41666109  0.04788719  0.97254350    -0.00800
Br224      Br  0.41229206  0.02217664  0.92949254    -0.00870
Br225      Br  0.07824795  0.11589866  0.96334947    -0.00830
Br226      Br  0.07186580  0.10313246  0.91859548    -0.00820
C227        C  0.99041090  0.22670111  0.15097310    -0.01940
C228        C  0.02051680  0.20074829  0.15853442     0.07740
C229        C  0.05776802  0.21817057  0.16461877    -0.02060
C230        C  0.06355955  0.26129100  0.16445426    -0.02060
C231        C  0.03203852  0.28757897  0.15835865     0.07870
C232        C  0.99600004  0.26993198  0.15096714    -0.02250
Br233      Br  0.45258888  0.30491651  0.14230851    -0.00800
Br234      Br  0.44002856  0.20313420  0.14188886    -0.00870
Br235      Br  0.11447922  0.28463570  0.17307836    -0.00830
Br236      Br  0.10053046  0.18282506  0.17363177    -0.00820
C237        C  0.48238968  0.41959916  0.20556963    -0.01940
C238        C  0.02011951  0.40033233  0.20422287     0.07740
C239        C  0.04618982  0.40008011  0.21941238    -0.02060
C240        C  0.03739100  0.42520507  0.23488341    -0.02060
C241        C  0.00462088  0.45505791  0.23400868     0.07870
C242        C  0.47579056  0.44889400  0.21929157    -0.02250
Br243      Br  0.42877474  0.48243378  0.21497367    -0.00800
Br244      Br  0.44085676  0.40714170  0.18729046    -0.00870
Br245      Br  0.07370212  0.41864160  0.25540919    -0.00830
Br246      Br  0.09544296  0.36758647  0.21812887    -0.00820
C247        C  0.47738823  0.06670948  0.76018402    -0.01940
C248        C  0.50391863  0.03097267  0.75938642     0.07740
C249        C  0.03451473  0.02910650  0.77372278    -0.02060
C250        C  0.03438177  0.05673928  0.78850949    -0.02060
C251        C  0.50172751  0.08357632  0.79105174     0.07870
C252        C  0.47476140  0.09059003  0.77650106    -0.02250
Br253      Br  0.43155232  0.13054167  0.77983157    -0.00800
Br254      Br  0.44005193  0.08369917  0.74116984    -0.00870
Br255      Br  0.07950931  0.05876377  0.80586027    -0.00830
Br256      Br  0.08077745  0.99241093  0.77366468    -0.00820
C257        C  0.46157313  0.26513205  0.84317868    -0.01940
C258        C  0.99598732  0.28822858  0.83766488     0.07740
C259        C  0.03233968  0.26744873  0.83294659    -0.02060
C260        C  0.03312992  0.22403564  0.83210158    -0.02060
C261        C  0.99770695  0.20089756  0.83624737     0.07870
C262        C  0.46242972  0.22160576  0.84252797    -0.02250
Br263      Br  0.41428289  0.19051478  0.84906411    -0.00800
Br264      Br  0.41265219  0.29339108  0.85074534    -0.00870
Br265      Br  0.08263426  0.19613059  0.82492671    -0.00830
Br266      Br  0.08103910  0.29869907  0.82743470    -0.00820
C267        C  0.45358472  0.43261711  0.78870174    -0.01940
C268        C  0.48357283  0.40357297  0.79254575     0.07740
C269        C  0.01448480  0.39607955  0.77982835    -0.02060
C270        C  0.01892773  0.42120887  0.76412244    -0.02060
C271        C  0.49087350  0.45565128  0.76073084     0.07870
C272        C  0.45806916  0.45998725  0.77398958    -0.02250
Br273      Br  0.41723058  0.50343543  0.77400394    -0.00800
Br274      Br  0.40588381  0.43454804  0.80452125    -0.00870
Br275      Br  0.06944615  0.40738546  0.75106670    -0.00830
Br276      Br  0.05324213  0.35230410  0.78510859    -0.00820
C277        C  0.22493577  0.08716484  0.49706219    -0.01940
C278        C  0.20487241  0.04880849  0.49761265     0.07740
C279        C  0.22669476  0.51180064  0.49729456    -0.02060
C280        C  0.26898224  0.51297337  0.49573970    -0.02060
C281        C  0.28959035  0.05137420  0.49571089     0.07870
C282        C  0.26776952  0.08845541  0.49637964    -0.02250
Br283      Br  0.29659386  0.14028272  0.49648380    -0.00800
Br284      Br  0.19364699  0.13731790  0.49773712    -0.00870
Br285      Br  0.29787979  0.46133400  0.49346446    -0.00830
Br286      Br  0.19876823  0.45932810  0.49948662    -0.00820
C287        C  0.07008135  0.01380838  0.73030359    -0.01940
C288        C  0.03648943  0.48466300  0.73315427     0.07740
C289        C  0.03394124  0.45090203  0.72015377    -0.02060
C290        C  0.06061291  0.44831480  0.70517384    -0.02060
C291        C  0.08830155  0.47992626  0.70163079     0.07870
C292        C  0.09661214  0.00928550  0.71514766    -0.02250
Br293      Br  0.14237923  0.04658944  0.71145362    -0.00800
Br294      Br  0.07663179  0.06800439  0.74167256    -0.00870
Br295      Br  0.05953270  0.40155267  0.68868788    -0.00830
Br296      Br  0.49261424  0.40761577  0.72140422    -0.00820
C297        C  0.44416893  0.03856068  0.55413722    -0.01940
C298        C  0.42443925  0.01384268  0.56746091     0.07740
C299        C  0.39518098  0.98432439  0.56175072    -0.02060
C300        C  0.38540492  0.98005189  0.54309398    -0.02060
C301        C  0.40501540  0.00482936  0.52993561     0.07870
C302        C  0.43529935  0.03304807  0.53550532    -0.02250
Br303      Br  0.46306430  0.06603378  0.51736155    -0.00800
Br304      Br  0.48293538  0.08113773  0.56076972    -0.00870
Br305      Br  0.34440908  0.94078163  0.53559686    -0.00830
Br306      Br  0.36585120  0.95195769  0.57958639    -0.00820
C307        C  0.06035000  0.98747265  0.53785328    -0.01940
C308        C  0.08062769  0.02439549  0.53314254     0.07740
C309        C  0.09070699  0.05298408  0.54707555    -0.02060
C310        C  0.08439087  0.04310863  0.56545298    -0.02300
C311        C  0.06089199  0.00822135  0.57017681     0.07870
C312        C  0.04869685  0.98031734  0.55614531    -0.02250
Br313      Br  0.01421449  0.43319031  0.56119886    -0.00800
Br314      Br  0.04938579  0.94592515  0.51951837    -0.00870
Br315      Br  0.10920487  0.07737191  0.58413734    -0.00830
Br316      Br  0.11147629  0.10718630  0.54106957    -0.00820
C317        C  0.21609642  0.03558689  0.66049619    -0.01940
C318        C  0.19548656  0.49985726  0.65441306     0.07740
C319        C  0.21839036  0.46577445  0.64831804    -0.02060
C320        C  0.26159282  0.46638174  0.64950666    -0.02060
C321        C  0.28189860  0.50084687  0.65711597     0.07870
C322        C  0.25902062  0.03596316  0.66203484    -0.02250
Br323      Br  0.28643152  0.08451931  0.67135861    -0.00800
Br324      Br  0.18504278  0.08360065  0.66742594    -0.00870
Br325      Br  0.29276607  0.41926800  0.64173905    -0.00830
Br326      Br  0.19019934  0.41769527  0.63921190    -0.00820
C327        C  0.44725998  0.50062467  0.69886536    -0.01940
C328        C  0.40512866  0.50205940  0.70046855     0.07740
C329        C  0.39042742  0.49217768  0.71821829    -0.02060
C330        C  0.41946793  0.47995397  0.73192467    -0.02060
C331        C  0.46103982  0.49670879  0.73143718     0.07870
C332        C  0.47059396  0.51267023  0.71361958    -0.02250
Br333      Br  0.50563845  0.55819619  0.70753157    -0.00800
Br334      Br  0.46946668  0.46276842  0.68122166    -0.00870
Br335      Br  0.40294900  0.42933895  0.74372881    -0.00830
Br336      Br  0.33347665  0.49299969  0.72466333    -0.00820
C337        C  0.43825658  0.98808450  0.45577280    -0.01940
C338        C  0.39746502  0.99987303  0.45965568     0.07740
C339        C  0.36938064  0.00120273  0.44459280    -0.02060
C340        C  0.38412290  0.00208263  0.42650574    -0.02060
C341        C  0.42490809  0.99199740  0.42306879     0.07870
C342        C  0.44959128  0.97895750  0.43774364    -0.02250
Br343      Br  0.49662508  0.94457271  0.43374551    -0.00800
Br344      Br  0.48146862  0.98821220  0.47370842    -0.00870
Br345      Br  0.34815399  0.01363093  0.40628262    -0.00830
Br346      Br  0.31078517  0.99678998  0.44779409    -0.00820
C347        C  0.04056433  0.05449179  0.43752414    -0.01940
C348        C  0.05888107  0.02509455  0.42555447     0.07740
C349        C  0.08794982  0.99746302  0.43263734    -0.02060
C350        C  0.09665201  0.99743393  0.45142066    -0.02060
C351        C  0.07988844  0.02777893  0.46307929     0.07870
C352        C  0.05236850  0.05665204  0.45599692    -0.02250
Br353      Br  0.03129876  0.09960400  0.47168777    -0.00800
Br354      Br  0.49729668  0.09089101  0.42966452    -0.00870
Br355      Br  0.13113935  0.95488867  0.46124384    -0.00830
Br356      Br  0.11738918  0.96050953  0.41664025    -0.00820
C357        C  0.05061591  0.47162578  0.29179652    -0.01940
C358        C  0.08747792  0.49372749  0.29314988     0.07740
C359        C  0.09846119  0.01882189  0.27815509    -0.02060
C360        C  0.07107235  0.02322588  0.26299786    -0.02060
C361        C  0.03234994  0.50064958  0.26283224     0.07870
C362        C  0.02092979  0.48762486  0.28040362    -0.02250
Br363      Br  0.49362642  0.53060788  0.29365588    -0.00800
Br364      Br  0.03404854  0.43121281  0.30946345    -0.00870
Br365      Br  0.08427160  0.07050469  0.24794465    -0.00830
Br366      Br  0.14964936  0.04902117  0.27885829    -0.00820
C367        C  0.27099209  0.04112418  0.32908064    -0.01940
C368        C  0.29225980  0.50601370  0.33525087     0.07740
C369        C  0.26978169  0.47426962  0.34391480    -0.02060
C370        C  0.22646570  0.47605428  0.34488739    -0.02060
C371        C  0.20516055  0.50950073  0.33720588     0.07870
C372        C  0.22783701  0.04277250  0.32999556    -0.02250
Br373      Br  0.19938402  0.09064455  0.32109083    -0.00800
Br374      Br  0.30096910  0.08740532  0.31947426    -0.00870
Br375      Br  0.19599992  0.43178017  0.35593135    -0.00830
Br376      Br  0.29802445  0.42705332  0.35350499    -0.00820
C377        C  0.44627043  0.45030750  0.26636924    -0.01940
C378        C  0.45468102  0.48797870  0.25629568     0.07740
C379        C  0.42541592  0.02013612  0.26007493    -0.02060
C380        C  0.40422173  0.02126316  0.27694269    -0.02060
C381        C  0.40476543  0.48728040  0.28873841     0.07870
C382        C  0.42216053  0.45068842  0.28243779    -0.02250
Br383      Br  0.41368851  0.40126013  0.29675355    -0.00800
Br384      Br  0.46583490  0.39616645  0.25973375    -0.00870
Br385      Br  0.37784462  0.07151940  0.28454429    -0.00830
Br386      Br  0.39869829  0.05327831  0.24166695    -0.00820
C387        C  0.33699159  0.00086325  0.33098652     0.03030
C388        C  0.36727316  0.50084666  0.34482858    -0.13110
C389        C  0.40887454  0.49385349  0.34051229     0.00540
C390        C  0.41987118  0.48779492  0.32225729    -0.11640
C391        C  0.39076708  0.99050885  0.30813258     0.03030
C392        C  0.34931744  0.99611725  0.31264010    -0.11060
H393        H  0.35847777  0.50616728  0.35888820     0.08620
H394        H  0.45164652  0.48227713  0.31901973     0.06150
H395        H  0.32661012  0.99682173  0.30185308     0.06000
C396        C  0.15986794  0.00753860  0.33404842     0.03030
C397        C  0.13075031  0.51566180  0.34797374    -0.13110
C398        C  0.08862350  0.51836070  0.34356999     0.00540
C399        C  0.07666190  0.51376181  0.32550798    -0.11640
C400        C  0.10423872  0.00181072  0.31181497     0.03030
C401        C  0.14588511  0.99844388  0.31626041    -0.11060
H402        H  0.14071345  0.51951971  0.36197922     0.08620
H403        H  0.04447200  0.51634082  0.32248449     0.06150
H404        H  0.16766717  0.98938015  0.30588547     0.06000
O405        O  0.03321417  0.54766433  0.36129884    -0.74520
O406        O  0.44936389  0.53352447  0.39830028    -0.74550
O407        O  0.02918919  0.55025769  0.39815400    -0.74610
O408        O  0.44909801  0.53401671  0.36094283    -0.74660
O409        O  0.46261431  0.96682155  0.35986682    -0.74590
O410        O  0.03779953  0.98260284  0.40018950    -0.74570
O411        O  0.45882446  0.96560424  0.39706656    -0.74540
O412        O  0.04613702  0.98051412  0.36337172    -0.74610
Ni413      Ni  0.48967828  0.54380708  0.37940038     1.25410
Ni414      Ni  0.50183955  0.97148177  0.37987211     1.25360
C415        C  0.05525228  0.51611165  0.35723116     0.87660
C416        C  0.44359139  0.49718106  0.40482947     0.87590
C417        C  0.04259583  0.51911599  0.40675212     0.87620
C418        C  0.44164770  0.49810118  0.35452826     0.87790
C419        C  0.32680522  0.00078620  0.66057726     0.03030
C420        C  0.35481894  0.50603874  0.64612806    -0.13110
C421        C  0.39536378  0.51738541  0.65004895     0.00540
C422        C  0.40576119  0.52632253  0.66801996    -0.11640
C423        C  0.38240150  0.01033763  0.68271751     0.03030
C424        C  0.34161907  0.99892047  0.67872792    -0.11060
H425        H  0.34486559  0.50283394  0.63208488     0.08620
H426        H  0.43584796  0.53950569  0.67037118     0.06150
H427        H  0.32083314  0.98906400  0.68919867     0.06000
O428        O  0.44125575  0.98015497  0.63072250    -0.74520
O429        O  0.02885187  0.97406471  0.59571095    -0.74550
O430        O  0.02605068  0.97458121  0.63286085    -0.74610
O431        O  0.44840043  0.97872447  0.59372010    -0.74660
O432        O  0.45036583  0.54724480  0.59447456    -0.74590
O433        O  0.03218903  0.54295992  0.63239532    -0.74570
O434        O  0.03082243  0.54247812  0.59538074    -0.74540
O435        O  0.44738538  0.54853161  0.63172044    -0.74610
Ni436      Ni  0.48588130  0.97442309  0.61356369     1.25410
Ni437      Ni  0.49027887  0.54773818  0.61376354     1.25360
C438        C  0.42892338  0.51541827  0.63647771     0.87660
C439        C  0.04063443  0.50777896  0.58834746     0.87590
C440        C  0.04404705  0.50769542  0.63818676     0.87620
C441        C  0.44023202  0.51350716  0.58647122     0.87790
C442        C  0.15122926  0.99543068  0.65857386     0.03030
C443        C  0.11993762  0.50390193  0.64574198    -0.13110
C444        C  0.07854325  0.50444311  0.65136330     0.00540
C445        C  0.06968281  0.49845778  0.66979555    -0.11640
C446        C  0.10018752  0.98776095  0.68239763     0.03030
C447        C  0.14076705  0.98550326  0.67660125    -0.11060
H448        H  0.12773042  0.51005340  0.63165081     0.08620
H449        H  0.03864727  0.50224989  0.67441112     0.06150
H450        H  0.16454098  0.97779953  0.68632476     0.06000
C451        C  0.33404468  0.55101419  0.49613552     0.03030
C452        C  0.35436111  0.54439579  0.47975307    -0.13110
C453        C  0.38437271  0.51367037  0.47850351     0.00540
C454        C  0.39922853  0.49682556  0.49522950    -0.11640
C455        C  0.38512715  0.51240301  0.51213368     0.03030
C456        C  0.35183672  0.53883847  0.51238153    -0.11060
H457        H  0.34240154  0.55902133  0.46765223     0.08620
H458        H  0.42051015  0.47159797  0.49549003     0.06150
H459        H  0.33720517  0.54652137  0.52523319     0.06000
C460        C  0.99240994  0.83325336  0.83408022     0.03030
C461        C  0.99591269  0.86311939  0.84809163    -0.13110
C462        C  0.99499884  0.90541182  0.84372475     0.00540
C463        C  0.99218734  0.91740141  0.82554853    -0.11640
C464        C  0.98720854  0.88825889  0.81157990     0.03030
C465        C  0.98633062  0.84621520  0.81597824    -0.11060
H466        H  0.99927125  0.85356360  0.86215824     0.08620
H467        H  0.99278302  0.94996621  0.82224482     0.06150
H468        H  0.98205205  0.82347658  0.80526927     0.06000
C469        C  0.49792509  0.99202564  0.74613778    -0.02580
C470        C  0.99642172  0.65574619  0.83228651     0.03030
C471        C  0.99691964  0.64212080  0.81398452    -0.13110
C472        C  0.99463870  0.59990173  0.80980761     0.00540
C473        C  0.99117306  0.57137011  0.82407839    -0.11640
C474        C  0.99354524  0.58396726  0.84227298     0.03030
C475        C  0.99568017  0.62633305  0.84644441    -0.11060
H476        H  0.00008535  0.66432840  0.80307311     0.08620
H477        H  0.98953456  0.53870088  0.82093832     0.06150
H478        H  0.99678354  0.63636663  0.86055683     0.06000
C479        C  0.03429260  0.83267093  0.16257431     0.03030
C480        C  0.03471827  0.86325817  0.14882846    -0.13110
C481        C  0.03507758  0.90552567  0.15358762     0.00540
C482        C  0.03583826  0.91666016  0.17203533    -0.11640
C483        C  0.03307516  0.88668176  0.18579164     0.03030
C484        C  0.03278070  0.84492861  0.18100513    -0.11060
H485        H  0.03364636  0.85424291  0.13458490     0.08620
H486        H  0.03418336  0.94901666  0.17573347     0.06150
H487        H  0.02913749  0.82193770  0.19157584     0.06000
O488        O  0.46031211  0.53628341  0.86177851    -0.74520
O489        O  0.46119269  0.95860195  0.90065719    -0.74550
O490        O  0.46094548  0.53949374  0.89875062    -0.74610
O491        O  0.46113013  0.95199775  0.86360884    -0.74660
O492        O  0.02934707  0.95421546  0.86271320    -0.74590
O493        O  0.02865418  0.53618799  0.90035080    -0.74570
O494        O  0.02892714  0.95524819  0.89986349    -0.74540
O495        O  0.02848213  0.53919494  0.86291533    -0.74610
Ni496      Ni  0.45849572  0.99648636  0.88096116     1.25410
Ni497      Ni  0.03139308  0.99635962  0.88118330     1.25360
C498        C  0.99420174  0.55203689  0.85653628     0.87660
C499        C  0.49499713  0.94723540  0.90782952     0.87590
C500        C  0.49438685  0.54730761  0.90717026     0.87620
C501        C  0.99529544  0.93815732  0.85765956     0.87790
C502        C  0.01081446  0.65657568  0.16230246     0.03030
C503        C  0.00969057  0.62655222  0.14827958    -0.13110
C504        C  0.99779091  0.58567899  0.15223567     0.00540
C505        C  0.98555336  0.57579077  0.16989532    -0.11640
C506        C  0.99323760  0.60323000  0.18435145     0.03030
C507        C  0.00440167  0.64407146  0.18046865    -0.11060
H508        H  0.01842462  0.63481384  0.13451062     0.08620
H509        H  0.97774391  0.54401836  0.17295981     0.06150
H510        H  0.01047067  0.66549409  0.19152585     0.06000
O511        O  0.04014730  0.54461949  0.13302519    -0.74520
O512        O  0.05655599  0.96020398  0.09711120    -0.74550
O513        O  0.03897695  0.53914776  0.09620886    -0.74610
O514        O  0.05805394  0.96104991  0.13447233    -0.74660
O515        O  0.99176723  0.94449617  0.13401363    -0.74590
O516        O  0.47212531  0.52760661  0.09809823    -0.74570
O517        O  0.48935663  0.94796756  0.09683072    -0.74540
O518        O  0.97410314  0.52768663  0.13495573    -0.74610
Ni519      Ni  0.05087923  0.00174458  0.11548205     1.25410
Ni520      Ni  0.97949363  0.98629244  0.11625323     1.25360
C521        C  0.00412790  0.55139204  0.13922341     0.87660
C522        C  0.02482298  0.94437962  0.08956837     0.87590
C523        C  0.00277855  0.54322756  0.08977571     0.87620
C524        C  0.02821379  0.93829686  0.13985504     0.87790
C525        C  0.46030269  0.83413398  0.99944702     0.03030
C526        C  0.46501502  0.85538494  0.01576721    -0.13110
C527        C  0.48887178  0.89150466  0.01643507     0.00540
C528        C  0.49106008  0.91388057  0.99965039    -0.11640
C529        C  0.48011833  0.89459257  0.98289334     0.03030
C530        C  0.46792434  0.85356376  0.98310967    -0.11060
H531        H  0.45442671  0.84045848  0.02800833     0.08620
H532        H  0.49983649  0.94560024  0.99903414     0.06150
H533        H  0.46538587  0.83617463  0.97046435     0.06000
C534        C  0.47663084  0.66045182  0.99894363     0.03030
C535        C  0.48235017  0.64011695  0.98248981    -0.13110
C536        C  0.49406602  0.59890254  0.98228083     0.00540
C537        C  0.50015025  0.57782682  0.99886345    -0.11640
C538        C  0.49411481  0.59900342  0.01550848     0.03030
C539        C  0.48183232  0.64007045  0.01534721    -0.11060
H540        H  0.47844851  0.65670119  0.96977883     0.08620
H541        H  0.50901493  0.54572769  0.99880613     0.06150
H542        H  0.47766423  0.65671633  0.02808073     0.06000
C543        C  0.49950406  0.99467066  0.24674365    -0.02580
C544        C  0.09903431  0.53034896  0.51475674     0.03030
C545        C  0.07715425  0.52835043  0.49805475    -0.13110
C546        C  0.09820365  0.53429489  0.48135662     0.00540
C547        C  0.13939512  0.54544927  0.48165976    -0.11640
C548        C  0.16067164  0.54641068  0.49799089     0.03030
C549        C  0.14117033  0.53756968  0.51427450    -0.11060
H550        H  0.04471841  0.52177077  0.49804910     0.08620
H551        H  0.15574942  0.55049268  0.46897382     0.06150
H552        H  0.15917334  0.53620974  0.52671384     0.06000
C553        C  0.00257669  0.77210403  0.99900474    -0.01940
C554        C  0.46316477  0.78958137  0.99968404     0.07740
C555        C  0.42789060  0.76481876  0.99985498    -0.02060
C556        C  0.43205674  0.72192353  0.99952259    -0.02060
C557        C  0.47141920  0.70468641  0.99906220     0.07870
C558        C  0.00664522  0.72952299  0.99879157    -0.02250
Br559      Br  0.06051980  0.70519536  0.99798513    -0.00800
Br560      Br  0.05125631  0.80633125  0.99798887    -0.00870
Br561      Br  0.38443114  0.68670237  0.99944931    -0.00830
Br562      Br  0.37453815  0.78979781  0.00013503    -0.00820
C563        C  0.00871513  0.87358662  0.04937715    -0.01940
C564        C  0.50985504  0.90244239  0.03459608     0.07740
C565        C  0.03251025  0.93933624  0.03815901    -0.02060
C566        C  0.04263855  0.95011435  0.05637872    -0.02060
C567        C  0.02762583  0.92640444  0.07107177     0.07870
C568        C  0.01173598  0.88730849  0.06748236    -0.02250
Br569      Br  0.99778607  0.85114577  0.08741147    -0.00800
Br570      Br  0.51835497  0.81523614  0.04577422    -0.00870
Br571      Br  0.07880520  0.99618722  0.06105948    -0.00830
Br572      Br  0.55684149  0.97270273  0.01929947    -0.00820
C573        C  0.46770387  0.54403207  0.05905784    -0.01940
C574        C  0.99756337  0.56084780  0.07121582     0.07740
C575        C  0.02754445  0.58817184  0.06424667    -0.02060
C576        C  0.02946385  0.59600007  0.04543161    -0.02060
C577        C  0.49926712  0.58008525  0.03359405     0.07870
C578        C  0.46822897  0.55453435  0.04045636    -0.02250
Br579      Br  0.42537528  0.53515540  0.02432166    -0.00800
Br580      Br  0.42616666  0.50529049  0.06689871    -0.00870
Br581      Br  0.07391635  0.62844419  0.03565051    -0.00830
Br582      Br  0.06549319  0.61654271  0.08028289    -0.00820
C583        C  0.03249366  0.55412291  0.20283923    -0.01940
C584        C  0.00215595  0.58443312  0.20231684     0.07740
C585        C  0.48277608  0.59557648  0.21872208    -0.02060
C586        C  0.48855971  0.57108380  0.23448374    -0.02060
C587        C  0.00613181  0.53119474  0.23275406     0.07870
C588        C  0.03470320  0.52738239  0.21771668    -0.02250
Br589      Br  0.08405047  0.49405723  0.21819503    -0.00800
Br590      Br  0.07322637  0.55160951  0.18346643    -0.00870
Br591      Br  0.48337074  0.59789052  0.25794243    -0.00830
Br592      Br  0.44924261  0.64412369  0.21980168    -0.00820
C593        C  0.02685076  0.93684292  0.93917897    -0.01940
C594        C  0.49407974  0.92990525  0.92666897     0.07740
C595        C  0.45685412  0.91364099  0.93341319    -0.02060
C596        C  0.45082380  0.90937918  0.95225830    -0.02060
C597        C  0.48402984  0.91355487  0.96451587     0.07870
C598        C  0.02242813  0.92618553  0.95774437    -0.02250
Br599      Br  0.06995018  0.92619440  0.97343734    -0.00800
Br600      Br  0.07790785  0.96216884  0.93183092    -0.00870
Br601      Br  0.39643844  0.89728440  0.96128038    -0.00830
Br602      Br  0.41448448  0.89375817  0.91705218    -0.00820
C603        C  0.46052486  0.55133041  0.93805412    -0.01940
C604        C  0.49329791  0.56297906  0.92628112     0.07740
C605        C  0.02805870  0.58291172  0.93389957    -0.02060
C606        C  0.03032930  0.59013205  0.95281998    -0.02060
C607        C  0.49738471  0.57940067  0.96420533     0.07870
C608        C  0.46260366  0.56015631  0.95681873    -0.02250
Br609      Br  0.41666163  0.54788679  0.97254365    -0.00800
Br610      Br  0.41229247  0.52217685  0.92949264    -0.00870
Br611      Br  0.07824838  0.61589849  0.96334969    -0.00830
Br612      Br  0.07186629  0.60313258  0.91859567    -0.00820
C613        C  0.99041208  0.72670145  0.15097355    -0.01940
C614        C  0.02051804  0.70074851  0.15853473     0.07740
C615        C  0.05776948  0.71817062  0.16461889    -0.02060
C616        C  0.06356126  0.76129102  0.16445428    -0.02060
C617        C  0.03204022  0.78757914  0.15835878     0.07870
C618        C  0.99600143  0.76993229  0.15096751    -0.02250
Br619      Br  0.45259014  0.80491697  0.14230910    -0.00800
Br620      Br  0.44002937  0.70313477  0.14188959    -0.00870
Br621      Br  0.11448135  0.78463547  0.17307802    -0.00830
Br622      Br  0.10053195  0.68282493  0.17363171    -0.00820
C623        C  0.48239451  0.91960042  0.20556956    -0.01940
C624        C  0.02012438  0.90033367  0.20422262     0.07740
C625        C  0.04619542  0.90008212  0.21941188    -0.02060
C626        C  0.03739681  0.92520700  0.23488296    -0.02060
C627        C  0.00462645  0.95505951  0.23400842     0.07870
C628        C  0.47579589  0.94889566  0.21929137    -0.02250
Br629      Br  0.42878070  0.98243619  0.21497322    -0.00800
Br630      Br  0.44086083  0.90714231  0.18729081    -0.00870
Br631      Br  0.07370785  0.91864326  0.25540872    -0.00830
Br632      Br  0.09544881  0.86758898  0.21812810    -0.00820
C633        C  0.47738163  0.56670886  0.76018422    -0.01940
C634        C  0.50391160  0.53097180  0.75938618     0.07740
C635        C  0.03450897  0.52910541  0.77372205    -0.02060
C636        C  0.03437746  0.55673828  0.78850873    -0.02060
C637        C  0.50172369  0.58357560  0.79105154     0.07870
C638        C  0.47475640  0.59058948  0.77650130    -0.02250
Br639      Br  0.43154805  0.63054163  0.77983248    -0.00800
Br640      Br  0.44004398  0.58369890  0.74117064    -0.00870
Br641      Br  0.07950647  0.55876251  0.80585877    -0.00830
Br642      Br  0.08077142  0.49240947  0.77366326    -0.00820
C643        C  0.46157340  0.76513194  0.84317840    -0.01940
C644        C  0.99598774  0.78822827  0.83766470     0.07740
C645        C  0.03234002  0.76744816  0.83294650    -0.02060
C646        C  0.03312990  0.72403508  0.83210137    -0.02060
C647        C  0.99770674  0.70089727  0.83624707     0.07870
C648        C  0.46242974  0.72160565  0.84252767    -0.02250
Br649      Br  0.41428273  0.69051487  0.84906376    -0.00800
Br650      Br  0.41265251  0.79339122  0.85074493    -0.00870
Br651      Br  0.08263397  0.69612968  0.82492641    -0.00830
Br652      Br  0.08103989  0.79869813  0.82743498    -0.00820
C653        C  0.45358982  0.93261721  0.78870114    -0.01940
C654        C  0.48357748  0.90357284  0.79254546     0.07740
C655        C  0.01449026  0.89607959  0.77982848    -0.02060
C656        C  0.01893478  0.92120955  0.76412288    -0.02060
C657        C  0.49088103  0.95565205  0.76073100     0.07870
C658        C  0.45807560  0.95998779  0.77398923    -0.02250
Br659      Br  0.41723690  0.00343584  0.77400314    -0.00800
Br660      Br  0.40588754  0.93454768  0.80451986    -0.00870
Br661      Br  0.06945454  0.90738693  0.75106801    -0.00830
Br662      Br  0.05324630  0.85230313  0.78510883    -0.00820
C663        C  0.22491510  0.58716552  0.49705929    -0.01940
C664        C  0.20485246  0.54880880  0.49760984     0.07740
C665        C  0.22671402  0.01179992  0.49729732    -0.02060
C666        C  0.26900136  0.01297185  0.49574169    -0.02060
C667        C  0.28957052  0.55137612  0.49570935     0.07870
C668        C  0.26774887  0.58845691  0.49637729    -0.02250
Br669      Br  0.29657212  0.64028482  0.49648129    -0.00800
Br670      Br  0.19362531  0.63731801  0.49773344    -0.00870
Br671      Br  0.29789763  0.96133191  0.49346586    -0.00830
Br672      Br  0.19878669  0.95932790  0.49949012    -0.00820
C673        C  0.07007240  0.51380673  0.73030260    -0.01940
C674        C  0.03649868  0.98466413  0.73315494     0.07740
C675        C  0.03395168  0.95090320  0.72015436    -0.02060
C676        C  0.06062383  0.94831673  0.70517455    -0.02060
C677        C  0.08831189  0.97992885  0.70163169     0.07870
C678        C  0.09660278  0.50928298  0.71514662    -0.02250
Br679      Br  0.14237066  0.54658583  0.71145231    -0.00800
Br680      Br  0.07662382  0.56800306  0.74167120    -0.00870
Br681      Br  0.05954511  0.90155471  0.68868851    -0.00830
Br682      Br  0.49262526  0.90761627  0.72140443    -0.00820
C683        C  0.44415376  0.53856119  0.55413687    -0.01940
C684        C  0.42442418  0.51384380  0.56746083     0.07740
C685        C  0.39516321  0.48432788  0.56175101    -0.02060
C686        C  0.38538438  0.48005715  0.54309442    -0.02060
C687        C  0.40499524  0.50483361  0.52993572     0.07870
C688        C  0.43528135  0.53305038  0.53550508    -0.02250
Br689      Br  0.46304556  0.56603617  0.51736110    -0.00800
Br690      Br  0.48292427  0.58113477  0.56076893    -0.00870
Br691      Br  0.34438406  0.44079087  0.53559807    -0.00830
Br692      Br  0.36583372  0.45196215  0.57958711    -0.00820
C693        C  0.06033492  0.48747232  0.53785375    -0.01940
C694        C  0.08061327  0.52439508  0.53314340     0.07740
C695        C  0.09069545  0.55298174  0.54707680    -0.02060
C696        C  0.08437999  0.54310485  0.56545408    -0.02300
C697        C  0.06087942  0.50821853  0.57017745     0.07870
C698        C  0.04868278  0.48031584  0.55614575    -0.02250
Br699      Br  0.01422941  0.93319138  0.56119868    -0.00800
Br700      Br  0.04936849  0.44592639  0.51951837    -0.00870
Br701      Br  0.10919624  0.57736502  0.58413897    -0.00830
Br702      Br  0.11146712  0.60718356  0.54107170    -0.00820
C703        C  0.21608372  0.53558587  0.66049513    -0.01940
C704        C  0.19549846  0.99985876  0.65441414     0.07740
C705        C  0.21840138  0.96577620  0.64831817    -0.02060
C706        C  0.26160395  0.96638310  0.64950595    -0.02060
C707        C  0.28191069  0.00084763  0.65711527     0.07870
C708        C  0.25900779  0.53596249  0.66203470    -0.02250
Br709      Br  0.28641746  0.58451922  0.67135856    -0.00800
Br710      Br  0.18502903  0.58359970  0.66742381    -0.00870
Br711      Br  0.29277612  0.91926961  0.64173718    -0.00830
Br712      Br  0.19020915  0.91769787  0.63921188    -0.00820
C713        C  0.44727081  0.00062402  0.69886513    -0.01940
C714        C  0.40513944  0.00205891  0.70046802     0.07740
C715        C  0.39043738  0.99217789  0.71821768    -0.02060
C716        C  0.41947725  0.97995418  0.73192426    -0.02060
C717        C  0.46104911  0.99670901  0.73143703     0.07870
C718        C  0.47060413  0.01267000  0.71361946    -0.02250
Br719      Br  0.50564820  0.05819646  0.70753167    -0.00800
Br720      Br  0.46947852  0.96276815  0.68122151    -0.00870
Br721      Br  0.40295807  0.92933858  0.74372784    -0.00830
Br722      Br  0.33348647  0.99300105  0.72466245    -0.00820
C723        C  0.43823816  0.48808743  0.45577233    -0.01940
C724        C  0.39744699  0.49987743  0.45965519     0.07740
C725        C  0.36936300  0.50120827  0.44459214    -0.02060
C726        C  0.38410567  0.50208826  0.42650511    -0.02060
C727        C  0.42489048  0.49200134  0.42306819     0.07870
C728        C  0.44957265  0.47896000  0.43774314    -0.02250
Br729      Br  0.49660343  0.44457111  0.43374513    -0.00800
Br730      Br  0.48145003  0.48821312  0.47370800    -0.00870
Br731      Br  0.34813751  0.51363835  0.40628193    -0.00830
Br732      Br  0.31076738  0.49679582  0.44779305    -0.00820
C733        C  0.04054705  0.55449535  0.43752400    -0.01940
C734        C  0.05886155  0.52509410  0.42555550     0.07740
C735        C  0.08792414  0.49745804  0.43264005    -0.02060
C736        C  0.09662212  0.49742902  0.45142368    -0.02060
C737        C  0.07986309  0.52777912  0.46308079     0.07870
C738        C  0.05234879  0.55665581  0.45599706    -0.02250
Br739      Br  0.03128277  0.59961174  0.47168675    -0.00800
Br740      Br  0.49728599  0.59090048  0.42966247    -0.00870
Br741      Br  0.13109695  0.45487701  0.46124974    -0.00830
Br742      Br  0.11736084  0.46049747  0.41664520    -0.00820
C743        C  0.05062399  0.97162810  0.29179609    -0.01940
C744        C  0.08748618  0.99372985  0.29314880     0.07740
C745        C  0.09845445  0.51881935  0.27815630    -0.02060
C746        C  0.07106705  0.52322318  0.26299854    -0.02060
C747        C  0.03235580  0.00065136  0.26283196     0.07870
C748        C  0.02093687  0.98762665  0.28040349    -0.02250
Br749      Br  0.49363405  0.03060980  0.29365599    -0.00800
Br750      Br  0.03405819  0.93121535  0.30946340    -0.00870
Br751      Br  0.08426982  0.57049972  0.24794453    -0.00830
Br752      Br  0.14964275  0.54901840  0.27886027    -0.00820
C753        C  0.27097959  0.54112537  0.32907968    -0.01940
C754        C  0.29227137  0.00601230  0.33525224     0.07740
C755        C  0.26979189  0.97426798  0.34391527    -0.02060
C756        C  0.22647570  0.97605261  0.34488650    -0.02060
C757        C  0.20517173  0.00949914  0.33720436     0.07870
C758        C  0.22782469  0.54277396  0.32999625    -0.02250
Br759      Br  0.19937022  0.59064615  0.32109261    -0.00800
Br760      Br  0.30095494  0.58740564  0.31947143    -0.00870
Br761      Br  0.19600828  0.93177835  0.35592946    -0.00830
Br762      Br  0.29803333  0.92705170  0.35350623    -0.00820
C763        C  0.44627782  0.95030662  0.26636936    -0.01940
C764        C  0.45468680  0.98797822  0.25629589     0.07740
C765        C  0.42541031  0.52013734  0.26007401    -0.02060
C766        C  0.40421408  0.52126492  0.27694133    -0.02060
C767        C  0.40477528  0.98727855  0.28873971     0.07870
C768        C  0.42217039  0.95068696  0.28243863    -0.02250
Br769      Br  0.41370153  0.90125834  0.29675451    -0.00800
Br770      Br  0.46583942  0.89616558  0.25973214    -0.00870
Br771      Br  0.37783669  0.57152149  0.28454233    -0.00830
Br772      Br  0.39869705  0.55328182  0.24166557    -0.00820
C773        C  0.83698001  0.50086542  0.33098492     0.03030
C774        C  0.86728517  0.00084415  0.34483010    -0.13110
C775        C  0.90888659  0.99385093  0.34051356     0.00540
C776        C  0.91988260  0.98779257  0.32225846    -0.11640
C777        C  0.89075622  0.49051128  0.30813120     0.03030
C778        C  0.84930633  0.49611969  0.31263850    -0.11060
H779        H  0.85849017  0.00616491  0.35888975     0.08620
H780        H  0.95165792  0.98227537  0.31902059     0.06150
H781        H  0.82659927  0.49682404  0.30185137     0.06000
C782        C  0.65985684  0.50753854  0.33405012     0.03030
C783        C  0.63076215  0.01566172  0.34797230    -0.13110
C784        C  0.58863537  0.01836232  0.34356891     0.00540
C785        C  0.57667285  0.01376473  0.32550696    -0.11640
C786        C  0.60422883  0.50180821  0.31181631     0.03030
C787        C  0.64587491  0.49844231  0.31626217    -0.11060
H788        H  0.64072584  0.01951829  0.36197777     0.08620
H789        H  0.54448286  0.01634465  0.32248379     0.06150
H790        H  0.66765761  0.48937846  0.30588752     0.06000
O791        O  0.53322663  0.04766450  0.36129855    -0.74520
O792        O  0.94937919  0.03352165  0.39830095    -0.74550
O793        O  0.52920399  0.05025742  0.39815386    -0.74610
O794        O  0.94911075  0.03401475  0.36094365    -0.74660
O795        O  0.96260024  0.46682314  0.35986628    -0.74590
O796        O  0.53778169  0.48260288  0.40019015    -0.74570
O797        O  0.95880680  0.46560665  0.39706604    -0.74540
O798        O  0.54612287  0.48051367  0.36337252    -0.74610
Ni799      Ni  0.98969206  0.04380586  0.37940068     1.25410
Ni800      Ni  0.00182363  0.47148268  0.37987221     1.25360
C801        C  0.55526504  0.01611235  0.35723039     0.87660
C802        C  0.94360833  0.99717797  0.40483010     0.87590
C803        C  0.54261291  0.01911602  0.40675150     0.87620
C804        C  0.94166061  0.99809909  0.35452918     0.87790
C805        C  0.82679314  0.50078649  0.66057815     0.03030
C806        C  0.85483140  0.00603824  0.64612733    -0.13110
C807        C  0.89537630  0.01738455  0.65004846     0.00540
C808        C  0.90577310  0.02632192  0.66801949    -0.11640
C809        C  0.88239006  0.51033808  0.68271817     0.03030
C810        C  0.84160738  0.49892109  0.67872878    -0.11060
H811        H  0.84487833  0.00283375  0.63208410     0.08620
H812        H  0.93585976  0.03950519  0.67037090     0.06150
H813        H  0.82082168  0.48906473  0.68919965     0.06000
O814        O  0.94124166  0.48015519  0.63072256    -0.74520
O815        O  0.52883756  0.47406313  0.59571116    -0.74550
O816        O  0.52603660  0.47458018  0.63286081    -0.74610
O817        O  0.94838594  0.47872459  0.59371996    -0.74660
O818        O  0.95037886  0.04724460  0.59447468    -0.74590
O819        O  0.53220172  0.04296133  0.63239553    -0.74570
O820        O  0.53083550  0.04247985  0.59538072    -0.74540
O821        O  0.94739808  0.04853136  0.63172036    -0.74610
Ni822      Ni  0.98586689  0.47442243  0.61356370     1.25410
Ni823      Ni  0.99029178  0.04773874  0.61376361     1.25360
C824        C  0.92893646  0.01541773  0.63647749     0.87660
C825        C  0.54064781  0.00778105  0.58834716     0.87590
C826        C  0.54406008  0.00769703  0.63818708     0.87620
C827        C  0.94024589  0.01350671  0.58647137     0.87790
C828        C  0.65121734  0.49542869  0.65857271     0.03030
C829        C  0.61994998  0.00390370  0.64574295    -0.13110
C830        C  0.57855553  0.00444526  0.65136398     0.00540
C831        C  0.56969434  0.99846028  0.66979622    -0.11640
C832        C  0.60017635  0.48775843  0.68239668     0.03030
C833        C  0.64075560  0.48550054  0.67660004    -0.11060
H834        H  0.62774322  0.01005453  0.63165176     0.08620
H835        H  0.53865867  0.00225223  0.67441150     0.06150
H836        H  0.66452978  0.47779646  0.68632338     0.06000
C837        C  0.83406447  0.05101128  0.49613624     0.03030
C838        C  0.85437951  0.04439173  0.47975353    -0.13110
C839        C  0.88439088  0.01366607  0.47850386     0.00540
C840        C  0.89924709  0.99682106  0.49522966    -0.11640
C841        C  0.88514692  0.01239909  0.51213384     0.03030
C842        C  0.85185739  0.03883563  0.51238203    -0.11060
H843        H  0.84241928  0.05901685  0.46765271     0.08620
H844        H  0.92052836  0.97159310  0.49548998     0.06150
H845        H  0.83722693  0.04651922  0.52523387     0.06000
C846        C  0.49240908  0.33325368  0.83408042     0.03030
C847        C  0.49591287  0.36311974  0.84809176    -0.13110
C848        C  0.49499830  0.40541216  0.84372489     0.00540
C849        C  0.49218508  0.41740173  0.82554871    -0.11640
C850        C  0.48720534  0.38825915  0.81158017     0.03030
C851        C  0.48632810  0.34621545  0.81597854    -0.11060
H852        H  0.49927260  0.35356399  0.86215832     0.08620
H853        H  0.49278019  0.44996653  0.82224500     0.06150
H854        H  0.48204882  0.32347679  0.80526965     0.06000
C855        C  0.99791680  0.49202493  0.74613754    -0.02580
C856        C  0.49642218  0.15574651  0.83228675     0.03030
C857        C  0.49692124  0.14212124  0.81398475    -0.13110
C858        C  0.49464082  0.09990220  0.80980775     0.00540
C859        C  0.49117433  0.07137045  0.82407842    -0.11640
C860        C  0.49354534  0.08396745  0.84227306     0.03030
C861        C  0.49567989  0.12633322  0.84644459    -0.11060
H862        H  0.50008755  0.16432893  0.80307340     0.08620
H863        H  0.48953628  0.03870124  0.82093828     0.06150
H864        H  0.49678252  0.13636667  0.86055704     0.06000
C865        C  0.53429042  0.33267066  0.16257438     0.03030
C866        C  0.53471673  0.36325820  0.14882866    -0.13110
C867        C  0.53507542  0.40552560  0.15358801     0.00540
C868        C  0.53583478  0.41665968  0.17203578    -0.11640
C869        C  0.53307113  0.38668093  0.18579193     0.03030
C870        C  0.53277733  0.34492790  0.18100523    -0.11060
H871        H  0.53364572  0.35424324  0.13458505     0.08620
H872        H  0.53417940  0.44901608  0.17573404     0.06150
H873        H  0.52913371  0.32193670  0.19157579     0.06000
O874        O  0.96031194  0.03628315  0.86177836    -0.74520
O875        O  0.96119286  0.45860241  0.90065739    -0.74550
O876        O  0.96094507  0.03949326  0.89875047    -0.74610
O877        O  0.96113001  0.45199808  0.86360904    -0.74660
O878        O  0.52934702  0.45421555  0.86271334    -0.74590
O879        O  0.52865384  0.03618768  0.90035077    -0.74570
O880        O  0.52892734  0.45524852  0.89986366    -0.74540
O881        O  0.52848204  0.03919490  0.86291534    -0.74610
Ni882      Ni  0.95849584  0.49648671  0.88096132     1.25410
Ni883      Ni  0.53139328  0.49635982  0.88118340     1.25360
C884        C  0.49420168  0.05203688  0.85653628     0.87660
C885        C  0.99499731  0.44723584  0.90782971     0.87590
C886        C  0.99438640  0.04730726  0.90717013     0.87620
C887        C  0.49529528  0.43815760  0.85765972     0.87790
C888        C  0.51081337  0.15657542  0.16230215     0.03030
C889        C  0.50969006  0.12655182  0.14827932    -0.13110
C890        C  0.49779124  0.08567837  0.15223547     0.00540
C891        C  0.48555420  0.07578992  0.16989517    -0.11640
C892        C  0.49323751  0.10322961  0.18435122     0.03030
C893        C  0.50440051  0.14407129  0.18046834    -0.11060
H894        H  0.51842398  0.13481350  0.13451035     0.08620
H895        H  0.47774571  0.04401733  0.17295975     0.06150
H896        H  0.51046884  0.16549418  0.19152552     0.06000
O897        O  0.54014789  0.04461943  0.13302486    -0.74520
O898        O  0.55655498  0.46020373  0.09711166    -0.74550
O899        O  0.53897725  0.03914787  0.09620853    -0.74610
O900        O  0.55805257  0.46104973  0.13447279    -0.74660
O901        O  0.49176569  0.44449672  0.13401400    -0.74590
O902        O  0.97212575  0.02760610  0.09809798    -0.74570
O903        O  0.98935553  0.44796791  0.09683104    -0.74540
O904        O  0.47410391  0.02768590  0.13495552    -0.74610
Ni905      Ni  0.55087842  0.50174445  0.11548246     1.25410
Ni906      Ni  0.47949267  0.48629299  0.11625353     1.25360
C907        C  0.50412849  0.05139155  0.13922317     0.87660
C908        C  0.52482191  0.44437967  0.08956877     0.87590
C909        C  0.50277876  0.04322743  0.08977547     0.87620
C910        C  0.52821213  0.43829701  0.13985547     0.87790
C911        C  0.96030288  0.33413430  0.99944706     0.03030
C912        C  0.96501491  0.35538513  0.01576730    -0.13110
C913        C  0.98887154  0.39150492  0.01643529     0.00540
C914        C  0.99106001  0.41388099  0.99965065    -0.11640
C915        C  0.98011855  0.39459310  0.98289354     0.03030
C916        C  0.96792475  0.35356423  0.98310977    -0.11060
H917        H  0.95442639  0.34045855  0.02800835     0.08620
H918        H  0.99983629  0.44560073  0.99903450     0.06150
H919        H  0.96538647  0.33617521  0.97046441     0.06000
C920        C  0.97663075  0.16045213  0.99894343     0.03030
C921        C  0.98234997  0.14011724  0.98248961    -0.13110
C922        C  0.99406564  0.09890277  0.98228062     0.00540
C923        C  0.00014984  0.07782703  0.99886324    -0.11640
C924        C  0.99411452  0.09900365  0.01550827     0.03030
C925        C  0.98183218  0.14007074  0.01534701    -0.11060
H926        H  0.97844833  0.15670149  0.96977863     0.08620
H927        H  0.00901441  0.04572787  0.99880592     0.06150
H928        H  0.97766418  0.15671662  0.02808053     0.06000
C929        C  0.99949884  0.49466955  0.24674366    -0.02580
C930        C  0.59905175  0.03034780  0.51475627     0.03030
C931        C  0.57717475  0.02834783  0.49805347    -0.13110
C932        C  0.59822669  0.03429303  0.48135591     0.00540
C933        C  0.63941766  0.04544920  0.48166057    -0.11640
C934        C  0.66069148  0.04641092  0.49799244     0.03030
C935        C  0.64118766  0.03756966  0.51427542    -0.11060
H936        H  0.54473911  0.02176738  0.49804683     0.08620
H937        H  0.65577392  0.05049376  0.46897522     0.06150
H938        H  0.65918858  0.03621060  0.52671538     0.06000
C939        C  0.50257673  0.27210435  0.99900478    -0.01940
C940        C  0.96316490  0.28958169  0.99968402     0.07740
C941        C  0.92789069  0.26481913  0.99985485    -0.02060
C942        C  0.93205677  0.22192390  0.99952239    -0.02060
C943        C  0.97141920  0.20468672  0.99906202     0.07870
C944        C  0.50664519  0.22952330  0.99879151    -0.02250
Br945      Br  0.56051974  0.20519561  0.99798503    -0.00800
Br946      Br  0.55125640  0.30633153  0.99798916    -0.00870
Br947      Br  0.88443111  0.18670281  0.99944901    -0.00830
Br948      Br  0.87453827  0.28979826  0.00013488    -0.00820
C949        C  0.50871414  0.37358682  0.04937748    -0.01940
C950        C  0.00985446  0.40244256  0.03459639     0.07740
C951        C  0.53250982  0.43933628  0.03815941    -0.02060
C952        C  0.54263792  0.45011432  0.05637915    -0.02060
C953        C  0.52762478  0.42640452  0.07107216     0.07870
C954        C  0.51173472  0.38730867  0.06748269    -0.02250
Br955      Br  0.49778431  0.35114601  0.08741176    -0.00800
Br956      Br  0.01835419  0.31523633  0.04577456    -0.00870
Br957      Br  0.57880496  0.49618682  0.06106000    -0.00830
Br958      Br  0.05684160  0.47270253  0.01929992    -0.00820
C959        C  0.96770373  0.04403221  0.05905764    -0.01940
C960        C  0.49756329  0.06084788  0.07121563     0.07740
C961        C  0.52754429  0.08817202  0.06424647    -0.02060
C962        C  0.52946361  0.09600030  0.04543142    -0.02060
C963        C  0.99926686  0.08008547  0.03359384     0.07870
C964        C  0.96822872  0.05453458  0.04045617    -0.02250
Br965      Br  0.92537490  0.03515575  0.02432151    -0.00800
Br966      Br  0.92616651  0.00529066  0.06689854    -0.00870
Br967      Br  0.57391611  0.12844437  0.03565029    -0.00830
Br968      Br  0.56549303  0.11654296  0.08028267    -0.00820
C969        C  0.53249607  0.05412504  0.20283925    -0.01940
C970        C  0.50215652  0.08443339  0.20231665     0.07740
C971        C  0.98277542  0.09557581  0.21872172    -0.02060
C972        C  0.98856050  0.07108406  0.23448354    -0.02060
C973        C  0.50613547  0.03119622  0.23275416     0.07870
C974        C  0.53470706  0.02738504  0.21771683    -0.02250
Br975      Br  0.58405527  0.99406129  0.21819520    -0.00800
Br976      Br  0.57322880  0.05161315  0.18346645    -0.00870
Br977      Br  0.98337126  0.09789173  0.25794201    -0.00830
Br978      Br  0.94923851  0.14412063  0.21980088    -0.00820
C979        C  0.52685093  0.43684359  0.93917921    -0.01940
C980        C  0.99407993  0.42990583  0.92666919     0.07740
C981        C  0.95685430  0.41364158  0.93341342    -0.02060
C982        C  0.95082398  0.40937985  0.95225853    -0.02060
C983        C  0.98403001  0.41355559  0.96451610     0.07870
C984        C  0.52242827  0.42618630  0.95774463    -0.02250
Br985      Br  0.56995025  0.42619534  0.97343763    -0.00800
Br986      Br  0.57790801  0.46216946  0.93183114    -0.00870
Br987      Br  0.89643865  0.39728500  0.96128062    -0.00830
Br988      Br  0.91448469  0.39375865  0.91705242    -0.00820
C989        C  0.96052436  0.05133038  0.93805397    -0.01940
C990        C  0.99329740  0.06297892  0.92628095     0.07740
C991        C  0.52805821  0.08291173  0.93389941    -0.02060
C992        C  0.53032882  0.09013222  0.95281981    -0.02060
C993        C  0.99738423  0.07940088  0.96420513     0.07870
C994        C  0.96260315  0.06015649  0.95681856    -0.02250
Br995      Br  0.91666108  0.04788721  0.97254350    -0.00800
Br996      Br  0.91229205  0.02217662  0.92949255    -0.00870
Br997      Br  0.57824792  0.11589871  0.96334947    -0.00830
Br998      Br  0.57186578  0.10313253  0.91859548    -0.00820
C999        C  0.49041092  0.22670110  0.15097310    -0.01940
C1000       C  0.52051682  0.20074828  0.15853442     0.07740
C1001       C  0.55776804  0.21817055  0.16461877    -0.02060
C1002       C  0.56355958  0.26129098  0.16445425    -0.02060
C1003       C  0.53203854  0.28757895  0.15835864     0.07870
C1004       C  0.49600006  0.26993196  0.15096714    -0.02250
Br1005     Br  0.95258886  0.30491652  0.14230851    -0.00800
Br1006     Br  0.94002854  0.20313421  0.14188886    -0.00870
Br1007     Br  0.61447925  0.28463568  0.17307836    -0.00830
Br1008     Br  0.60053048  0.18282504  0.17363176    -0.00820
C1009       C  0.98238966  0.41959922  0.20556961    -0.01940
C1010       C  0.52011952  0.40033228  0.20422288     0.07740
C1011       C  0.54618985  0.40008005  0.21941238    -0.02060
C1012       C  0.53739104  0.42520503  0.23488341    -0.02060
C1013       C  0.50462092  0.45505787  0.23400868     0.07870
C1014       C  0.97579053  0.44889404  0.21929156    -0.02250
Br1015     Br  0.92877470  0.48243382  0.21497366    -0.00800
Br1016     Br  0.94085676  0.40714177  0.18729043    -0.00870
Br1017     Br  0.57370220  0.41864158  0.25540918    -0.00830
Br1018     Br  0.59544298  0.36758640  0.21812887    -0.00820
C1019       C  0.97738824  0.06670946  0.76018402    -0.01940
C1020       C  0.00391863  0.03097265  0.75938642     0.07740
C1021       C  0.53451473  0.02910652  0.77372278    -0.02060
C1022       C  0.53438177  0.05673932  0.78850948    -0.02060
C1023       C  0.00172751  0.08357629  0.79105174     0.07870
C1024       C  0.97476140  0.09059000  0.77650106    -0.02250
Br1025     Br  0.93155232  0.13054164  0.77983157    -0.00800
Br1026     Br  0.94005194  0.08369916  0.74116984    -0.00870
Br1027     Br  0.57950932  0.05876382  0.80586027    -0.00830
Br1028     Br  0.58077745  0.99241095  0.77366469    -0.00820
C1029       C  0.96157314  0.26513201  0.84317867    -0.01940
C1030       C  0.49598731  0.28822863  0.83766488     0.07740
C1031       C  0.53233966  0.26744878  0.83294658    -0.02060
C1032       C  0.53312990  0.22403569  0.83210157    -0.02060
C1033       C  0.49770694  0.20089761  0.83624736     0.07870
C1034       C  0.96242973  0.22160572  0.84252797    -0.02250
Br1035     Br  0.91428289  0.19051474  0.84906411    -0.00800
Br1036     Br  0.91265220  0.29339104  0.85074533    -0.00870
Br1037     Br  0.58263424  0.19613065  0.82492668    -0.00830
Br1038     Br  0.58103907  0.29869913  0.82743468    -0.00820
C1039       C  0.95358480  0.43261707  0.78870173    -0.01940
C1040       C  0.98357291  0.40357293  0.79254574     0.07740
C1041       C  0.51448466  0.39607953  0.77982833    -0.02060
C1042       C  0.51892754  0.42120881  0.76412241    -0.02060
C1043       C  0.99087365  0.45565131  0.76073086     0.07870
C1044       C  0.95806931  0.45998729  0.77398959    -0.02250
Br1045     Br  0.91723084  0.50343556  0.77400401    -0.00800
Br1046     Br  0.90588382  0.43454792  0.80452120    -0.00870
Br1047     Br  0.56944591  0.40738536  0.75106663    -0.00830
Br1048     Br  0.55324197  0.35230405  0.78510856    -0.00820
C1049       C  0.72493575  0.08716484  0.49706219    -0.01940
C1050       C  0.70487238  0.04880849  0.49761266     0.07740
C1051       C  0.72669471  0.51180049  0.49729453    -0.02060
C1052       C  0.76898220  0.51297318  0.49573969    -0.02060
C1053       C  0.78959033  0.05137418  0.49571090     0.07870
C1054       C  0.76776950  0.08845540  0.49637964    -0.02250
Br1055     Br  0.79659385  0.14028270  0.49648379    -0.00800
Br1056     Br  0.69364698  0.13731789  0.49773712    -0.00870
Br1057     Br  0.79787972  0.46133378  0.49346450    -0.00830
Br1058     Br  0.69876813  0.45932798  0.49948660    -0.00820
C1059       C  0.57008135  0.01380839  0.73030359    -0.01940
C1060       C  0.53648931  0.48466307  0.73315427     0.07740
C1061       C  0.53394114  0.45090217  0.72015373    -0.02060
C1062       C  0.56061282  0.44831502  0.70517380    -0.02060
C1063       C  0.58830146  0.47992651  0.70163079     0.07870
C1064       C  0.59661215  0.00928551  0.71514767    -0.02250
Br1065     Br  0.64237924  0.04658944  0.71145362    -0.00800
Br1066     Br  0.57663179  0.06800440  0.74167256    -0.00870
Br1067     Br  0.55953266  0.40155296  0.68868780    -0.00830
Br1068     Br  0.99261431  0.40761566  0.72140432    -0.00820
C1069       C  0.94416892  0.03856067  0.55413721    -0.01940
C1070       C  0.92443924  0.01384266  0.56746091     0.07740
C1071       C  0.89518099  0.98432436  0.56175072    -0.02060
C1072       C  0.88540491  0.98005186  0.54309397    -0.02060
C1073       C  0.90501539  0.00482935  0.52993561     0.07870
C1074       C  0.93529933  0.03304806  0.53550532    -0.02250
Br1075     Br  0.96306427  0.06603377  0.51736154    -0.00800
Br1076     Br  0.98293537  0.08113771  0.56076971    -0.00870
Br1077     Br  0.84440909  0.94078160  0.53559686    -0.00830
Br1078     Br  0.86585122  0.95195765  0.57958639    -0.00820
C1079       C  0.56034998  0.98747266  0.53785329    -0.01940
C1080       C  0.58062767  0.02439550  0.53314254     0.07740
C1081       C  0.59070697  0.05298409  0.54707556    -0.02060
C1082       C  0.58439086  0.04310864  0.56545298    -0.02300
C1083       C  0.56089198  0.00822136  0.57017681     0.07870
C1084       C  0.54869684  0.98031735  0.55614531    -0.02250
Br1085     Br  0.51421459  0.43319041  0.56119889    -0.00800
Br1086     Br  0.54938577  0.94592515  0.51951838    -0.00870
Br1087     Br  0.60920486  0.07737192  0.58413734    -0.00830
Br1088     Br  0.61147626  0.10718631  0.54106957    -0.00820
C1089       C  0.71609642  0.03558689  0.66049619    -0.01940
C1090       C  0.69548656  0.49985742  0.65441310     0.07740
C1091       C  0.71839033  0.46577460  0.64831806    -0.02060
C1092       C  0.76159278  0.46638182  0.64950670    -0.02060
C1093       C  0.78189861  0.50084689  0.65711603     0.07870
C1094       C  0.75902062  0.03596316  0.66203484    -0.02250
Br1095     Br  0.78643153  0.08451930  0.67135861    -0.00800
Br1096     Br  0.68504279  0.08360064  0.66742594    -0.00870
Br1097     Br  0.79276598  0.41926806  0.64173906    -0.00830
Br1098     Br  0.69019925  0.41769550  0.63921187    -0.00820
C1099       C  0.94726002  0.50062418  0.69886535    -0.01940
C1100       C  0.90512872  0.50205921  0.70046857     0.07740
C1101       C  0.89042748  0.49217790  0.71821835    -0.02060
C1102       C  0.91946796  0.47995419  0.73192474    -0.02060
C1103       C  0.96103993  0.49670876  0.73143717     0.07870
C1104       C  0.97059411  0.51266986  0.71361951    -0.02250
Br1105     Br  0.00563855  0.55819576  0.70753138    -0.00800
Br1106     Br  0.96946658  0.46276795  0.68122160    -0.00870
Br1107     Br  0.90294891  0.42933920  0.74372886    -0.00830
Br1108     Br  0.83347675  0.49300047  0.72466343    -0.00820
C1109       C  0.93825658  0.98808452  0.45577280    -0.01940
C1110       C  0.89746501  0.99987303  0.45965568     0.07740
C1111       C  0.86938063  0.00120271  0.44459279    -0.02060
C1112       C  0.88412290  0.00208261  0.42650574    -0.02060
C1113       C  0.92490810  0.99199741  0.42306879     0.07870
C1114       C  0.94959129  0.97895752  0.43774364    -0.02250
Br1115     Br  0.99662509  0.94457274  0.43374552    -0.00800
Br1116     Br  0.98146862  0.98821225  0.47370842    -0.00870
Br1117     Br  0.84815399  0.01363089  0.40628262    -0.00830
Br1118     Br  0.81078516  0.99678994  0.44779408    -0.00820
C1119       C  0.54056431  0.05449178  0.43752414    -0.01940
C1120       C  0.55888106  0.02509454  0.42555448     0.07740
C1121       C  0.58794980  0.99746301  0.43263734    -0.02060
C1122       C  0.59665199  0.99743393  0.45142066    -0.02060
C1123       C  0.57988842  0.02777892  0.46307930     0.07870
C1124       C  0.55236847  0.05665204  0.45599692    -0.02250
Br1125     Br  0.53129872  0.09960399  0.47168777    -0.00800
Br1126     Br  0.99729671  0.09089103  0.42966452    -0.00870
Br1127     Br  0.63113933  0.95488867  0.46124384    -0.00830
Br1128     Br  0.61738917  0.96050953  0.41664025    -0.00820
C1129       C  0.55061596  0.47162571  0.29179651    -0.01940
C1130       C  0.58747797  0.49372742  0.29314988     0.07740
C1131       C  0.59846119  0.01882189  0.27815510    -0.02060
C1132       C  0.57107234  0.02322589  0.26299787    -0.02060
C1133       C  0.53235001  0.50064954  0.26283224     0.07870
C1134       C  0.52092985  0.48762480  0.28040361    -0.02250
Br1135     Br  0.99362637  0.53060795  0.29365588    -0.00800
Br1136     Br  0.53404857  0.43121273  0.30946344    -0.00870
Br1137     Br  0.58427158  0.07050472  0.24794466    -0.00830
Br1138     Br  0.64964936  0.04902115  0.27885829    -0.00820
C1139       C  0.77099209  0.04112419  0.32908064    -0.01940
C1140       C  0.79225983  0.50601357  0.33525090     0.07740
C1141       C  0.76978171  0.47426947  0.34391482    -0.02060
C1142       C  0.72646572  0.47605412  0.34488740    -0.02060
C1143       C  0.70516058  0.50950058  0.33720590     0.07870
C1144       C  0.72783700  0.04277250  0.32999555    -0.02250
Br1145     Br  0.69938401  0.09064454  0.32109083    -0.00800
Br1146     Br  0.80096909  0.08740533  0.31947425    -0.00870
Br1147     Br  0.69599993  0.43177998  0.35593134    -0.00830
Br1148     Br  0.79802447  0.42705315  0.35350500    -0.00820
C1149       C  0.94627040  0.45030748  0.26636924    -0.01940
C1150       C  0.95468096  0.48797869  0.25629568     0.07740
C1151       C  0.92541593  0.02013612  0.26007493    -0.02060
C1152       C  0.90422173  0.02126317  0.27694269    -0.02060
C1153       C  0.90476545  0.48728035  0.28873844     0.07870
C1154       C  0.92216056  0.45068838  0.28243780    -0.02250
Br1155     Br  0.91368861  0.40126008  0.29675357    -0.00800
Br1156     Br  0.96583480  0.39616643  0.25973371    -0.00870
Br1157     Br  0.87784463  0.07151941  0.28454429    -0.00830
Br1158     Br  0.89869831  0.05327833  0.24166695    -0.00820
C1159       C  0.83699159  0.00086326  0.33098652     0.03030
C1160       C  0.86727319  0.50084653  0.34482861    -0.13110
C1161       C  0.90887458  0.49385339  0.34051232     0.00540
C1162       C  0.91987121  0.48779486  0.32225732    -0.11640
C1163       C  0.89076708  0.99050887  0.30813258     0.03030
C1164       C  0.84931744  0.99611726  0.31264010    -0.11060
H1165       H  0.85847781  0.50616713  0.35888823     0.08620
H1166       H  0.95164656  0.48227710  0.31901975     0.06150
H1167       H  0.82661012  0.99682174  0.30185308     0.06000
C1168       C  0.65986794  0.00753860  0.33404842     0.03030
C1169       C  0.63075033  0.51566165  0.34797375    -0.13110
C1170       C  0.58862352  0.51836057  0.34357000     0.00540
C1171       C  0.57666194  0.51376171  0.32550798    -0.11640
C1172       C  0.60423872  0.00181071  0.31181497     0.03030
C1173       C  0.64588510  0.99844387  0.31626041    -0.11060
H1174       H  0.64071345  0.51951956  0.36197924     0.08620
H1175       H  0.54447204  0.51634073  0.32248449     0.06150
H1176       H  0.66766716  0.98938014  0.30588547     0.06000
O1177       O  0.53321420  0.54766428  0.36129882    -0.74520
O1178       O  0.94936392  0.53352436  0.39830032    -0.74550
O1179       O  0.52918919  0.55025767  0.39815398    -0.74610
O1180       O  0.94909800  0.53401664  0.36094286    -0.74660
O1181       O  0.96261431  0.96682156  0.35986682    -0.74590
O1182       O  0.53779953  0.98260283  0.40018950    -0.74570
O1183       O  0.95882446  0.96560425  0.39706656    -0.74540
O1184       O  0.54613702  0.98051412  0.36337172    -0.74610
Ni1185     Ni  0.98967828  0.54380705  0.37940041     1.25410
Ni1186     Ni  0.00183955  0.97148178  0.37987211     1.25360
C1187       C  0.55525227  0.51611156  0.35723116     0.87660
C1188       C  0.94359148  0.49718094  0.40482950     0.87590
C1189       C  0.54259577  0.51911595  0.40675210     0.87620
C1190       C  0.94164774  0.49810110  0.35452828     0.87790
C1191       C  0.82680522  0.00078619  0.66057726     0.03030
C1192       C  0.85481893  0.50603869  0.64612811    -0.13110
C1193       C  0.89536380  0.51738530  0.65004899     0.00540
C1194       C  0.90576125  0.52632238  0.66802000    -0.11640
C1195       C  0.88240150  0.01033762  0.68271750     0.03030
C1196       C  0.84161907  0.99892046  0.67872791    -0.11060
H1197       H  0.84486555  0.50283394  0.63208494     0.08620
H1198       H  0.93584806  0.53950546  0.67037121     0.06150
H1199       H  0.82083314  0.98906399  0.68919866     0.06000
O1200       O  0.94125575  0.98015496  0.63072249    -0.74520
O1201       O  0.52885187  0.97406472  0.59571095    -0.74550
O1202       O  0.52605067  0.97458122  0.63286086    -0.74610
O1203       O  0.94840043  0.97872445  0.59372010    -0.74660
O1204       O  0.95036580  0.54724470  0.59447459    -0.74590
O1205       O  0.53218903  0.54296015  0.63239530    -0.74570
O1206       O  0.53082246  0.54247830  0.59538073    -0.74540
O1207       O  0.94738539  0.54853146  0.63172047    -0.74610
Ni1208     Ni  0.98588131  0.97442308  0.61356369     1.25410
Ni1209     Ni  0.99027886  0.54773801  0.61376356     1.25360
C1210       C  0.92892337  0.51541814  0.63647774     0.87660
C1211       C  0.54063449  0.50777913  0.58834746     0.87590
C1212       C  0.54404708  0.50769568  0.63818676     0.87620
C1213       C  0.94023196  0.51350707  0.58647124     0.87790
C1214       C  0.65122926  0.99543068  0.65857387     0.03030
C1215       C  0.61993764  0.50390215  0.64574199    -0.13110
C1216       C  0.57854326  0.50444341  0.65136330     0.00540
C1217       C  0.56968281  0.49845816  0.66979555    -0.11640
C1218       C  0.60018753  0.98776095  0.68239763     0.03030
C1219       C  0.64076705  0.98550326  0.67660125    -0.11060
H1220       H  0.62773047  0.51005356  0.63165081     0.08620
H1221       H  0.53864727  0.50225037  0.67441112     0.06150
H1222       H  0.66454099  0.97779953  0.68632476     0.06000
C1223       C  0.83404466  0.55101395  0.49613550     0.03030
C1224       C  0.85436111  0.54439551  0.47975306    -0.13110
C1225       C  0.88437274  0.51367011  0.47850353     0.00540
C1226       C  0.89922856  0.49682536  0.49522953    -0.11640
C1227       C  0.88512713  0.51240284  0.51213369     0.03030
C1228       C  0.85183669  0.53883828  0.51238152    -0.11060
H1229       H  0.84240154  0.55902100  0.46765220     0.08620
H1230       H  0.92051021  0.47159780  0.49549008     0.06150
H1231       H  0.83720511  0.54652120  0.52523318     0.06000
C1232       C  0.49241000  0.83325338  0.83408023     0.03030
C1233       C  0.49591275  0.86311942  0.84809164    -0.13110
C1234       C  0.49499887  0.90541185  0.84372475     0.00540
C1235       C  0.49218735  0.91740143  0.82554853    -0.11640
C1236       C  0.48720856  0.88825890  0.81157990     0.03030
C1237       C  0.48633066  0.84621521  0.81597825    -0.11060
H1238       H  0.49927131  0.85356364  0.86215825     0.08620
H1239       H  0.49278303  0.94996624  0.82224482     0.06150
H1240       H  0.48205210  0.82347659  0.80526928     0.06000
C1241       C  0.99792509  0.99202563  0.74613778    -0.02580
C1242       C  0.49642187  0.65574621  0.83228654     0.03030
C1243       C  0.49691976  0.64212079  0.81398456    -0.13110
C1244       C  0.49463879  0.59990172  0.80980765     0.00540
C1245       C  0.49117315  0.57137012  0.82407844    -0.11640
C1246       C  0.49354537  0.58396729  0.84227303     0.03030
C1247       C  0.49568032  0.62633308  0.84644445    -0.11060
H1248       H  0.50008546  0.66432838  0.80307314     0.08620
H1249       H  0.48953462  0.53870089  0.82093838     0.06150
H1250       H  0.49678370  0.63636668  0.86055687     0.06000
C1251       C  0.53429261  0.83267094  0.16257431     0.03030
C1252       C  0.53471828  0.86325817  0.14882846    -0.13110
C1253       C  0.53507759  0.90552567  0.15358762     0.00540
C1254       C  0.53583827  0.91666017  0.17203533    -0.11640
C1255       C  0.53307517  0.88668177  0.18579164     0.03030
C1256       C  0.53278071  0.84492862  0.18100513    -0.11060
H1257       H  0.53364637  0.85424291  0.13458490     0.08620
H1258       H  0.53418337  0.94901667  0.17573347     0.06150
H1259       H  0.52913750  0.82193771  0.19157584     0.06000
O1260       O  0.96031202  0.53628337  0.86177847    -0.74520
O1261       O  0.96119268  0.95860191  0.90065720    -0.74550
O1262       O  0.96094542  0.53949375  0.89875058    -0.74610
O1263       O  0.96113011  0.95199771  0.86360884    -0.74660
O1264       O  0.52934709  0.95421551  0.86271320    -0.74590
O1265       O  0.52865424  0.53618795  0.90035085    -0.74570
O1266       O  0.52892715  0.95524825  0.89986349    -0.74540
O1267       O  0.52848222  0.53919495  0.86291538    -0.74610
Ni1268     Ni  0.95849570  0.99648631  0.88096116     1.25410
Ni1269     Ni  0.53139309  0.99635967  0.88118330     1.25360
C1270       C  0.49420184  0.55203693  0.85653633     0.87660
C1271       C  0.99499712  0.94723535  0.90782953     0.87590
C1272       C  0.99438679  0.54730764  0.90717021     0.87620
C1273       C  0.49529547  0.93815736  0.85765956     0.87790
C1274       C  0.51081448  0.65657568  0.16230247     0.03030
C1275       C  0.50969057  0.62655222  0.14827959    -0.13110
C1276       C  0.49779090  0.58567900  0.15223569     0.00540
C1277       C  0.48555336  0.57579079  0.16989534    -0.11640
C1278       C  0.49323764  0.60323002  0.18435147     0.03030
C1279       C  0.50440172  0.64407147  0.18046866    -0.11060
H1280       H  0.51842461  0.63481384  0.13451063     0.08620
H1281       H  0.47774391  0.54401838  0.17295983     0.06150
H1282       H  0.51047075  0.66549411  0.19152586     0.06000
O1283       O  0.54014729  0.54461949  0.13302521    -0.74520
O1284       O  0.55655599  0.96020398  0.09711120    -0.74550
O1285       O  0.53897694  0.53914777  0.09620888    -0.74610
O1286       O  0.55805395  0.96104991  0.13447233    -0.74660
O1287       O  0.49176724  0.94449617  0.13401363    -0.74590
O1288       O  0.97212533  0.52760660  0.09809821    -0.74570
O1289       O  0.98935663  0.94796756  0.09683072    -0.74540
O1290       O  0.47410313  0.52768663  0.13495576    -0.74610
Ni1291     Ni  0.55087924  0.00174458  0.11548205     1.25410
Ni1292     Ni  0.47949364  0.98629244  0.11625323     1.25360
C1293       C  0.50412789  0.55139204  0.13922343     0.87660
C1294       C  0.52482298  0.94437963  0.08956837     0.87590
C1295       C  0.50277853  0.54322757  0.08977574     0.87620
C1296       C  0.52821380  0.93829686  0.13985504     0.87790
C1297       C  0.96030272  0.83413394  0.99944703     0.03030
C1298       C  0.96501505  0.85538490  0.01576722    -0.13110
C1299       C  0.98887179  0.89150463  0.01643507     0.00540
C1300       C  0.99106007  0.91388054  0.99965039    -0.11640
C1301       C  0.98011833  0.89459253  0.98289334     0.03030
C1302       C  0.96792437  0.85356371  0.98310967    -0.11060
H1303       H  0.95442675  0.84045843  0.02800833     0.08620
H1304       H  0.99983647  0.94560021  0.99903414     0.06150
H1305       H  0.96538590  0.83617458  0.97046435     0.06000
C1306       C  0.97663087  0.66045177  0.99894360     0.03030
C1307       C  0.98235019  0.64011691  0.98248978    -0.13110
C1308       C  0.99406603  0.59890250  0.98228079     0.00540
C1309       C  0.00015026  0.57782676  0.99886341    -0.11640
C1310       C  0.99411483  0.59900336  0.01550844     0.03030
C1311       C  0.98183235  0.64007040  0.01534718    -0.11060
H1312       H  0.97844852  0.65670116  0.96977881     0.08620
H1313       H  0.00901494  0.54572764  0.99880609     0.06150
H1314       H  0.97766428  0.65671626  0.02808070     0.06000
C1315       C  0.99950407  0.99467065  0.24674365    -0.02580
C1316       C  0.59903431  0.53034900  0.51475672     0.03030
C1317       C  0.57715422  0.52835045  0.49805474    -0.13110
C1318       C  0.59820359  0.53429485  0.48135660     0.00540
C1319       C  0.63939508  0.54544917  0.48165972    -0.11640
C1320       C  0.66067163  0.54641060  0.49799085     0.03030
C1321       C  0.64117033  0.53756967  0.51427446    -0.11060
H1322       H  0.54471836  0.52177083  0.49804910     0.08620
H1323       H  0.65574937  0.55049252  0.46897377     0.06150
H1324       H  0.65917335  0.53620974  0.52671380     0.06000
C1325       C  0.50257666  0.77210407  0.99900474    -0.01940
C1326       C  0.96316480  0.78958132  0.99968404     0.07740
C1327       C  0.92789064  0.76481871  0.99985498    -0.02060
C1328       C  0.93205678  0.72192348  0.99952258    -0.02060
C1329       C  0.97141924  0.70468636  0.99906219     0.07870
C1330       C  0.50664518  0.72952303  0.99879158    -0.02250
Br1331     Br  0.56051977  0.70519541  0.99798515    -0.00800
Br1332     Br  0.55125628  0.80633129  0.99798886    -0.00870
Br1333     Br  0.88443117  0.68670232  0.99944929    -0.00830
Br1334     Br  0.87453818  0.78979777  0.00013504    -0.00820
C1335       C  0.50871511  0.87358664  0.04937715    -0.01940
C1336       C  0.00985504  0.90244237  0.03459608     0.07740
C1337       C  0.53251026  0.93933624  0.03815901    -0.02060
C1338       C  0.54263855  0.95011436  0.05637872    -0.02060
C1339       C  0.52762583  0.92640445  0.07107177     0.07870
C1340       C  0.51173596  0.88730850  0.06748235    -0.02250
Br1341     Br  0.49778603  0.85114579  0.08741147    -0.00800
Br1342     Br  0.01835503  0.81523613  0.04577422    -0.00870
Br1343     Br  0.57880521  0.99618721  0.06105948    -0.00830
Br1344     Br  0.05684144  0.97270275  0.01929948    -0.00820
C1345       C  0.96770389  0.54403204  0.05905781    -0.01940
C1346       C  0.49756334  0.56084783  0.07121585     0.07740
C1347       C  0.52754441  0.58817188  0.06424671    -0.02060
C1348       C  0.52946381  0.59600014  0.04543165    -0.02060
C1349       C  0.99926716  0.58008518  0.03359401     0.07870
C1350       C  0.96822900  0.55453430  0.04045633    -0.02250
Br1351     Br  0.92537530  0.53515535  0.02432163    -0.00800
Br1352     Br  0.92616665  0.50529049  0.06689869    -0.00870
Br1353     Br  0.57391629  0.62844429  0.03565055    -0.00830
Br1354     Br  0.56549314  0.61654276  0.08028294    -0.00820
C1355       C  0.53249370  0.55412289  0.20283922    -0.01940
C1356       C  0.50215602  0.58443313  0.20231685     0.07740
C1357       C  0.98277595  0.59557646  0.21872206    -0.02060
C1358       C  0.98855958  0.57108380  0.23448372    -0.02060
C1359       C  0.50613188  0.53119472  0.23275406     0.07870
C1360       C  0.53470324  0.52738234  0.21771666    -0.02250
Br1361     Br  0.58405048  0.49405715  0.21819499    -0.00800
Br1362     Br  0.57322638  0.55160947  0.18346640    -0.00870
Br1363     Br  0.98337057  0.59789056  0.25794240    -0.00830
Br1364     Br  0.94924242  0.64412363  0.21980164    -0.00820
C1365       C  0.52685078  0.93684293  0.93917896    -0.01940
C1366       C  0.99407974  0.92990521  0.92666898     0.07740
C1367       C  0.95685412  0.91364092  0.93341319    -0.02060
C1368       C  0.95082380  0.90937911  0.95225830    -0.02060
C1369       C  0.98402984  0.91355483  0.96451587     0.07870
C1370       C  0.52242814  0.92618555  0.95774437    -0.02250
Br1371     Br  0.56995019  0.92619438  0.97343734    -0.00800
Br1372     Br  0.57790788  0.96216881  0.93183092    -0.00870
Br1373     Br  0.89643845  0.89728429  0.96128038    -0.00830
Br1374     Br  0.91448450  0.89375808  0.91705218    -0.00820
C1375       C  0.96052482  0.55133043  0.93805408    -0.01940
C1376       C  0.99329786  0.56297908  0.92628107     0.07740
C1377       C  0.52805874  0.58291171  0.93389962    -0.02060
C1378       C  0.53032933  0.59013207  0.95282003    -0.02060
C1379       C  0.99738470  0.57940065  0.96420529     0.07870
C1380       C  0.96260363  0.56015630  0.95681869    -0.02250
Br1381     Br  0.91666161  0.54788677  0.97254361    -0.00800
Br1382     Br  0.91229241  0.52217689  0.92949260    -0.00870
Br1383     Br  0.57824839  0.61589854  0.96334973    -0.00830
Br1384     Br  0.57186635  0.60313256  0.91859572    -0.00820
C1385       C  0.49041209  0.72670146  0.15097356    -0.01940
C1386       C  0.52051806  0.70074852  0.15853474     0.07740
C1387       C  0.55776950  0.71817063  0.16461889    -0.02060
C1388       C  0.56356128  0.76129103  0.16445428    -0.02060
C1389       C  0.53204023  0.78757914  0.15835878     0.07870
C1390       C  0.49600144  0.76993229  0.15096751    -0.02250
Br1391     Br  0.95259013  0.80491697  0.14230909    -0.00800
Br1392     Br  0.94002936  0.70313477  0.14188958    -0.00870
Br1393     Br  0.61448137  0.78463548  0.17307801    -0.00830
Br1394     Br  0.60053197  0.68282494  0.17363171    -0.00820
C1395       C  0.98239450  0.91960040  0.20556956    -0.01940
C1396       C  0.52012439  0.90033368  0.20422262     0.07740
C1397       C  0.54619543  0.90008214  0.21941188    -0.02060
C1398       C  0.53739682  0.92520701  0.23488296    -0.02060
C1399       C  0.50462645  0.95505953  0.23400842     0.07870
C1400       C  0.97579589  0.94889564  0.21929137    -0.02250
Br1401     Br  0.92878068  0.98243616  0.21497323    -0.00800
Br1402     Br  0.94086082  0.90714229  0.18729081    -0.00870
Br1403     Br  0.57370784  0.91864327  0.25540872    -0.00830
Br1404     Br  0.59544882  0.86758900  0.21812810    -0.00820
C1405       C  0.97738179  0.56670892  0.76018415    -0.01940
C1406       C  0.00391175  0.53097185  0.75938614     0.07740
C1407       C  0.53450883  0.52910531  0.77372208    -0.02060
C1408       C  0.53437741  0.55673819  0.78850876    -0.02060
C1409       C  0.00172369  0.58357564  0.79105149     0.07870
C1410       C  0.97475647  0.59058953  0.77650123    -0.02250
Br1411     Br  0.93154809  0.63054166  0.77983237    -0.00800
Br1412     Br  0.94004436  0.58369901  0.74117050    -0.00870
Br1413     Br  0.57950648  0.55876237  0.80585877    -0.00830
Br1414     Br  0.58077122  0.49240928  0.77366329    -0.00820
C1415       C  0.96157331  0.76513193  0.84317838    -0.01940
C1416       C  0.49598782  0.78822830  0.83766471     0.07740
C1417       C  0.53234011  0.76744820  0.83294651    -0.02060
C1418       C  0.53313001  0.72403512  0.83210139    -0.02060
C1419       C  0.49770686  0.70089729  0.83624710     0.07870
C1420       C  0.96242962  0.72160564  0.84252765    -0.02250
Br1421     Br  0.91428261  0.69051488  0.84906374    -0.00800
Br1422     Br  0.91265244  0.79339123  0.85074492    -0.00870
Br1423     Br  0.58263410  0.69612974  0.82492643    -0.00830
Br1424     Br  0.58103996  0.79869819  0.82743499    -0.00820
C1425       C  0.95358981  0.93261720  0.78870114    -0.01940
C1426       C  0.98357747  0.90357284  0.79254546     0.07740
C1427       C  0.51449027  0.89607960  0.77982849    -0.02060
C1428       C  0.51893479  0.92120956  0.76412288    -0.02060
C1429       C  0.99088102  0.95565203  0.76073099     0.07870
C1430       C  0.95807559  0.95998778  0.77398923    -0.02250
Br1431     Br  0.91723689  0.00343583  0.77400313    -0.00800
Br1432     Br  0.90588753  0.93454768  0.80451986    -0.00870
Br1433     Br  0.56945455  0.90738695  0.75106802    -0.00830
Br1434     Br  0.55324631  0.85230314  0.78510883    -0.00820
C1435       C  0.72491512  0.58716537  0.49705920    -0.01940
C1436       C  0.70485244  0.54880867  0.49760978     0.07740
C1437       C  0.72671399  0.01179991  0.49729733    -0.02060
C1438       C  0.76900133  0.01297183  0.49574169    -0.02060
C1439       C  0.78957051  0.55137592  0.49570932     0.07870
C1440       C  0.76774889  0.58845672  0.49637722    -0.02250
Br1441     Br  0.79657218  0.64028460  0.49648117    -0.00800
Br1442     Br  0.69362537  0.63731789  0.49773331    -0.00870
Br1443     Br  0.79789759  0.96133189  0.49346587    -0.00830
Br1444     Br  0.69878665  0.95932789  0.49949013    -0.00820
C1445       C  0.57007231  0.51380680  0.73030264    -0.01940
C1446       C  0.53649868  0.98466414  0.73315494     0.07740
C1447       C  0.53395168  0.95090321  0.72015436    -0.02060
C1448       C  0.56062384  0.94831673  0.70517455    -0.02060
C1449       C  0.58831189  0.97992885  0.70163169     0.07870
C1450       C  0.59660268  0.50928315  0.71514665    -0.02250
Br1451     Br  0.64237056  0.54658602  0.71145237    -0.00800
Br1452     Br  0.57662381  0.56800303  0.74167133    -0.00870
Br1453     Br  0.55954511  0.90155472  0.68868852    -0.00830
Br1454     Br  0.99262525  0.90761626  0.72140442    -0.00820
C1455       C  0.94415370  0.53856110  0.55413689    -0.01940
C1456       C  0.92442410  0.51384374  0.56746086     0.07740
C1457       C  0.89516311  0.48432783  0.56175104    -0.02060
C1458       C  0.88538430  0.48005706  0.54309445    -0.02060
C1459       C  0.90499519  0.50483349  0.52993574     0.07870
C1460       C  0.93528130  0.53305027  0.53550511    -0.02250
Br1461     Br  0.96304553  0.56603603  0.51736113    -0.00800
Br1462     Br  0.98292422  0.58113467  0.56076895    -0.00870
Br1463     Br  0.84438398  0.44079077  0.53559811    -0.00830
Br1464     Br  0.86583357  0.45196217  0.57958715    -0.00820
C1465       C  0.56033496  0.48747240  0.53785376    -0.01940
C1466       C  0.58061329  0.52439515  0.53314339     0.07740
C1467       C  0.59069549  0.55298184  0.54707677    -0.02060
C1468       C  0.58438003  0.54310499  0.56545406    -0.02300
C1469       C  0.56087947  0.50821867  0.57017745     0.07870
C1470       C  0.54868284  0.48031595  0.55614576    -0.02250
Br1471     Br  0.51422940  0.93319138  0.56119869    -0.00800
Br1472     Br  0.54936851  0.44592644  0.51951839    -0.00870
Br1473     Br  0.60919626  0.57736521  0.58413893    -0.00830
Br1474     Br  0.61146719  0.60718363  0.54107165    -0.00820
C1475       C  0.71608377  0.53558597  0.66049520    -0.01940
C1476       C  0.69549846  0.99985876  0.65441414     0.07740
C1477       C  0.71840138  0.96577620  0.64831817    -0.02060
C1478       C  0.76160395  0.96638309  0.64950595    -0.02060
C1479       C  0.78191069  0.00084762  0.65711527     0.07870
C1480       C  0.75900784  0.53596252  0.66203479    -0.02250
Br1481     Br  0.78641756  0.58451918  0.67135869    -0.00800
Br1482     Br  0.68502914  0.58359983  0.66742389    -0.00870
Br1483     Br  0.79277612  0.91926960  0.64173717    -0.00830
Br1484     Br  0.69020914  0.91769787  0.63921188    -0.00820
C1485       C  0.94727081  0.00062401  0.69886513    -0.01940
C1486       C  0.90513944  0.00205891  0.70046801     0.07740
C1487       C  0.89043738  0.99217788  0.71821767    -0.02060
C1488       C  0.91947725  0.97995418  0.73192425    -0.02060
C1489       C  0.96104910  0.99670900  0.73143703     0.07870
C1490       C  0.97060413  0.01266999  0.71361946    -0.02250
Br1491     Br  0.00564820  0.05819646  0.70753167    -0.00800
Br1492     Br  0.96947852  0.96276814  0.68122151    -0.00870
Br1493     Br  0.90295806  0.92933857  0.74372783    -0.00830
Br1494     Br  0.83348647  0.99300105  0.72466244    -0.00820
C1495       C  0.93823825  0.48808725  0.45577236    -0.01940
C1496       C  0.89744706  0.49987715  0.45965522     0.07740
C1497       C  0.86936307  0.50120791  0.44459216    -0.02060
C1498       C  0.88410575  0.50208796  0.42650513    -0.02060
C1499       C  0.92489059  0.49200117  0.42306822     0.07870
C1500       C  0.94957278  0.47895987  0.43774317    -0.02250
Br1501     Br  0.99660365  0.44457111  0.43374515    -0.00800
Br1502     Br  0.98145010  0.48821298  0.47370804    -0.00870
Br1503     Br  0.84813755  0.51363792  0.40628195    -0.00830
Br1504     Br  0.81076746  0.49679532  0.44779307    -0.00820
C1505       C  0.54054705  0.55449536  0.43752398    -0.01940
C1506       C  0.55886148  0.52509404  0.42555549     0.07740
C1507       C  0.58792398  0.49745791  0.43264006    -0.02060
C1508       C  0.59662194  0.49742889  0.45142369    -0.02060
C1509       C  0.57986300  0.52777908  0.46308078     0.07870
C1510       C  0.55234878  0.55665582  0.45599704    -0.02250
Br1511     Br  0.53128288  0.59961185  0.47168671    -0.00800
Br1512     Br  0.99728590  0.59090037  0.42966251    -0.00870
Br1513     Br  0.63109662  0.45487680  0.46124978    -0.00830
Br1514     Br  0.61736060  0.46049720  0.41664523    -0.00820
C1515       C  0.55062398  0.97162810  0.29179609    -0.01940
C1516       C  0.58748618  0.99372984  0.29314881     0.07740
C1517       C  0.59845451  0.51881929  0.27815631    -0.02060
C1518       C  0.57106713  0.52322312  0.26299854    -0.02060
C1519       C  0.53235579  0.00065137  0.26283196     0.07870
C1520       C  0.52093686  0.98762666  0.28040349    -0.02250
Br1521     Br  0.99363406  0.03060980  0.29365599    -0.00800
Br1522     Br  0.53405818  0.93121535  0.30946340    -0.00870
Br1523     Br  0.58426997  0.57049959  0.24794451    -0.00830
Br1524     Br  0.64964280  0.54901836  0.27886030    -0.00820
C1525       C  0.77097962  0.54112525  0.32907973    -0.01940
C1526       C  0.79227136  0.00601231  0.33525224     0.07740
C1527       C  0.76979189  0.97426799  0.34391527    -0.02060
C1528       C  0.72647571  0.97605262  0.34488650    -0.02060
C1529       C  0.70517173  0.00949914  0.33720436     0.07870
C1530       C  0.72782472  0.54277384  0.32999629    -0.02250
Br1531     Br  0.69937025  0.59064604  0.32109267    -0.00800
Br1532     Br  0.80095497  0.58740554  0.31947150    -0.00870
Br1533     Br  0.69600829  0.93177835  0.35592946    -0.00830
Br1534     Br  0.79803333  0.92705172  0.35350623    -0.00820
C1535       C  0.94627782  0.95030662  0.26636936    -0.01940
C1536       C  0.95468680  0.98797822  0.25629590     0.07740
C1537       C  0.92541024  0.52013731  0.26007403    -0.02060
C1538       C  0.90421405  0.52126487  0.27694135    -0.02060
C1539       C  0.90477528  0.98727856  0.28873971     0.07870
C1540       C  0.92217039  0.95068696  0.28243863    -0.02250
Br1541     Br  0.91370152  0.90125835  0.29675451    -0.00800
Br1542     Br  0.96583943  0.89616558  0.25973215    -0.00870
Br1543     Br  0.87783663  0.57152142  0.28454236    -0.00830
Br1544     Br  0.89869692  0.55328175  0.24166560    -0.00820
loop_ 
_geom_bond_atom_site_label_1 
_geom_bond_atom_site_label_2 
_geom_bond_distance 
_geom_bond_site_symmetry_2 
_ccdc_geom_bond_type 
C1            C6   1.412       .  A
C1          C388   1.416       .  A
C1          C368   1.505       .  S
C2            C3   1.415   1_545  A
C2          C387   1.416       .  A
C2            H7   1.083       .  S
C3            C4   1.399       .  A
C3           C32   1.488       .  S
C4          C391   1.408       .  A
C4            H8   1.081       .  S
C5            C6   1.407       .  A
C5          C390   1.408       .  A
C5          C381   1.497       .  S
C6            H9   1.084       .  S
C10          C15   1.410       .  A
C10         C397   1.420       .  A
C10         C371   1.499       .  S
C11          C12   1.417       .  A
C11         C396   1.420       .  A
C11          H16   1.083       .  S
C12          C13   1.387       .  A
C12          C29   1.483       .  S
C13         C400   1.404       .  A
C13          H17   1.078       .  S
C14          C15   1.404       .  A
C14         C399   1.404       .  A
C14         C358   1.494       .  S
C15          H18   1.083       .  S
O19          C29   1.289       .  A
O19        Ni799   1.950   1_455  S
O20          C30   1.288   1_545  A
O20         Ni27   1.942       .  S
O21          C31   1.273       .  A
O21        Ni799   1.895   1_455  S
O22          C32   1.278   1_545  A
O22         Ni27   1.917       .  S
O23         C418   1.289       .  A
O23         Ni28   1.951       .  S
O24         C417   1.286       .  A
O24        Ni800   1.927       .  S
O25         C416   1.274       .  A
O25         Ni28   1.898       .  S
O26         C415   1.276       .  A
O26        Ni800   1.910       .  S
Ni27        O791   1.950       .  S
Ni27        O793   1.895       .  S
Ni27       Ni414   2.384   1_545  S
Ni28        O796   1.927       .  S
Ni28        O798   1.910       .  S
Ni28       Ni413   2.384       .  S
C29         O412   1.276   1_545  A
C30         C341   1.480       .  S
C30         O411   1.274       .  A
C31         C348   1.488       .  S
C31         O410   1.286   1_545  A
C32         O409   1.289       .  A
C33          C38   1.416       .  A
C33         C420   1.411       .  A
C33         C321   1.488       .  S
C34          C35   1.403       .  A
C34         C419   1.411       .  A
C34          H39   1.083       .  S
C35          C36   1.389       .  A
C35          C52   1.483       .  S
C36         C423   1.420       .  A
C36          H40   1.084       .  S
C37          C38   1.412       .  A
C37         C422   1.420       .  A
C37         C328   1.522       .  S
C38          H41   1.074       .  S
O42         C438   1.285       .  A
O42         Ni50   1.936       .  S
O43         C439   1.281       .  A
O43        Ni822   1.920   1_455  S
O44         C440   1.283       .  A
O44        Ni822   1.928   1_455  S
O45         C441   1.279       .  A
O45         Ni50   1.906       .  S
O46          C55   1.282       .  A
O46         Ni51   1.922       .  S
O47          C54   1.284       .  A
O47        Ni823   1.939   1_455  S
O48          C53   1.279       .  A
O48        Ni823   1.898   1_455  S
O49          C52   1.280       .  A
O49         Ni51   1.924       .  S
Ni50        O815   1.920       .  S
Ni50        O816   1.928       .  S
Ni50       Ni437   2.384       .  S
Ni51        O819   1.939       .  S
Ni51        O820   1.898       .  S
Ni51       Ni436   2.384   1_545  S
C52         O428   1.285   1_545  A
C53         C311   1.487       .  S
C53         O429   1.281   1_545  A
C54          C58   1.488       .  S
C54         O430   1.283   1_545  A
C55         C298   1.485       .  S
C55         O431   1.279   1_545  A
C56          C61   1.403       .  A
C56         C443   1.416       .  A
C56         C318   1.485       .  S
C57          C58   1.415       .  A
C57         C442   1.416   1_545  A
C57          H62   1.083       .  S
C58          C59   1.396   1_545  A
C59         C446   1.403       .  A
C59          H63   1.077   1_565  S
C60          C61   1.395       .  A
C60         C445   1.403       .  A
C60         C291   1.485       .  S
C61          H64   1.084       .  S
C65          C66   1.389       .  A
C65          C70   1.384       .  A
C65         C281   1.454       .  S
C66          C67   1.405       .  A
C66          H71   1.081       .  S
C67          C68   1.429   1_545  A
C67         C338   1.513   1_545  S
C68          C69   1.414   1_565  A
C68          H72   1.077       .  S
C69          C70   1.389       .  A
C69         C301   1.478       .  S
C70          H73   1.085       .  S
C74          C75   1.413       .  A
C74          C79   1.407       .  A
C74         C258   1.491       .  S
C75          C76   1.412       .  A
C75          H80   1.083       .  S
C76          C77   1.392       .  A
C76         C115   1.471       .  S
C77          C78   1.400       .  A
C77          H81   1.086       .  S
C78          C79   1.404       .  A
C78        C1040   1.487       .  S
C79          H82   1.084       .  S
C83         C271   1.612       .  S
C83         C331   1.623       .  S
C83         C634   1.602       .  S
C83        C1060   1.598       .  S
C84          C85   1.410       .  A
C84          C89   1.413       .  A
C84         C261   1.494       .  S
C85          C86   1.405       .  A
C85          H90   1.083   1_655  S
C86          C87   1.404       .  A
C86        C1023   1.490   1_655  S
C87          C88   1.395       .  A
C87          H91   1.086       .  S
C88          C89   1.409       .  A
C88         C112   1.475       .  S
C89          H92   1.083       .  S
C93          C94   1.417       .  A
C93          C98   1.407       .  A
C93         C231   1.497       .  S
C94          C95   1.415       .  A
C94          H99   1.083       .  S
C95          C96   1.398       .  A
C95         C138   1.485       .  S
C96          C97   1.407       .  A
C96         H100   1.085       .  S
C97          C98   1.399       .  A
C97         C238   1.482       .  S
C98         H101   1.084       .  S
O102        C884   1.278       .  A
O102       Ni496   1.914   1_545  S
O103        C113   1.279       .  A
O103       Ni110   1.902       .  S
O104        C114   1.278       .  A
O104       Ni496   1.908   1_545  S
O105        C887   1.282       .  A
O105       Ni110   1.923       .  S
O106        C115   1.280   1_455  A
O106       Ni111   1.921       .  S
O107        C886   1.280   1_455  A
O107       Ni497   1.908   1_545  S
O108        C885   1.280   1_455  A
O108       Ni111   1.917       .  S
O109        C112   1.285   1_455  A
O109       Ni497   1.937   1_545  S
Ni110       O488   1.914       .  S
Ni110       O490   1.908       .  S
Ni110      Ni883   2.382       .  S
Ni111       O493   1.908       .  S
Ni111       O495   1.937       .  S
Ni111      Ni882   2.382   1_455  S
C112        O874   1.278       .  A
C113        C208   1.493       .  S
C113        O880   1.280       .  A
C114        C218   1.488       .  S
C114        O879   1.280       .  A
C115        O877   1.282       .  A
C116        C117   1.414       .  A
C116        C121   1.409       .  A
C116        C228   1.494       .  S
C117        C118   1.413   1_455  A
C117        H122   1.083       .  S
C118        C119   1.393       .  A
C118        C135   1.478   1_655  S
C119        C120   1.403       .  A
C119        H123   1.086       .  S
C120        C121   1.404   1_655  A
C120        C198   1.482   1_655  S
C121        H124   1.083       .  S
O125        C135   1.282       .  A
O125       Ni519   1.925       .  S
O126        C136   1.279       .  A
O126       Ni133   1.911       .  S
O127        C137   1.280       .  A
O127       Ni519   1.907       .  S
O128        C138   1.284       .  A
O128       Ni133   1.937       .  S
O129        C138   1.282   1_655  A
O129       Ni134   1.927       .  S
O130        C909   1.278       .  A
O130      Ni1292   1.909   1_545  S
O131        C908   1.282       .  A
O131       Ni906   1.915       .  S
O132        C135   1.282   1_655  A
O132       Ni520   1.924   1_545  S
Ni133       O511   1.925       .  S
Ni133       O513   1.907       .  S
Ni133      Ni134   2.385   1_455  S
Ni134      O1288   1.909       .  S
Ni134       O903   1.915       .  S
Ni134       O518   1.924       .  S
C136        C181   1.476       .  S
C136        O903   1.282   1_455  A
C137        C188   1.487   1_455  S
C137        O902   1.278   1_455  A
C139        C140   1.386   1_556  A
C139        C144   1.378       .  A
C139        C168   1.450       .  S
C140        C141   1.406       .  A
C140        H145   1.078       .  S
C141        C142   1.433   1_554  A
C141        C178   1.536       .  S
C142        C143   1.421       .  A
C142        H146   1.069       .  S
C143        C144   1.389       .  A
C143        C211   1.488       .  S
C144        H147   1.086       .  S
C148        C149   1.385       .  A
C148        C153   1.385   1_556  A
C148        C171   1.447       .  S
C149        C150   1.393       .  A
C149        H154   1.085       .  S
C150        C151   1.411       .  A
C150        C221   1.470       .  S
C151        C152   1.412   1_556  A
C151        H155   1.083       .  S
C152        C153   1.394       .  A
C152        C191   1.473       .  S
C153        H156   1.085       .  S
C157        C378   1.638       .  S
C157       C1359   1.585       .  S
C157       C1013   1.595       .  S
C157       C1133   1.604       .  S
C158        C159   1.418       .  A
C158        C163   1.396       .  A
C158        C308   1.489       .  S
C159        C160   1.418       .  A
C159        H164   1.080       .  S
C160        C161   1.393       .  A
C160        C351   1.480       .  S
C161        C162   1.383       .  A
C161        H165   1.085       .  S
C162        C163   1.384       .  A
C162        C278   1.446       .  S
C163        H166   1.085       .  S
C167        C172   1.390       .  A
C167        C940   1.410   1_455  A
C167       Br174   1.938       .  S
C168        C169   1.403       .  A
C168        C939   1.410       .  A
C169        C170   1.400       .  A
C169       Br176   1.926   1_556  S
C170        C171   1.405       .  A
C170       Br175   1.927       .  S
C171        C944   1.403       .  A
C172        C943   1.403   1_455  A
C172       Br173   1.934       .  S
C177        C182   1.401       .  A
C177        C950   1.435       .  A
C177       Br956   1.939       .  S
C178        C949   1.435       .  A
C178        C951   1.428       .  A
C179        C180   1.417       .  A
C179        C950   1.428       .  A
C179       Br958   1.929       .  S
C180        C181   1.413       .  A
C180       Br185   1.932       .  S
C181        C182   1.393       .  A
C182       Br183   1.931   1_455  S
Br184       C949   1.939       .  S
Br186       C951   1.929       .  S
C187        C192   1.406       .  A
C187        C960   1.426       .  A
C187       Br194   1.936       .  S
C188        C189   1.416   1_655  A
C188        C959   1.426       .  A
C189        C190   1.404       .  A
C189       Br196   1.935       .  S
C190        C963   1.408   1_455  A
C190       Br195   1.931       .  S
C191        C192   1.403       .  A
C191        C962   1.408       .  A
C192       Br193   1.933       .  S
C197        C198   1.401       .  A
C197        C202   1.398       .  A
C197       Br204   1.949       .  S
C198        C971   1.406   1_455  A
C199        C200   1.418       .  A
C199        C970   1.406       .  A
C199       Br206   1.925       .  S
C200        C973   1.424       .  A
C200       Br205   1.931       .  S
C201        C202   1.450       .  A
C201        C972   1.424   1_455  A
C201       C1315   1.585   1_445  S
C202       Br203   1.946   1_545  S
C207        C212   1.412       .  A
C207        C980   1.425   1_455  A
C207       Br214   1.935       .  S
C208        C209   1.415       .  A
C208        C979   1.425       .  A
C209        C210   1.402       .  A
C209       Br216   1.937       .  S
C210        C211   1.413       .  A
C210       Br215   1.936       .  S
C211        C984   1.410       .  A
C212        C983   1.410   1_455  A
C212       Br213   1.931       .  S
C217        C218   1.427       .  A
C217        C222   1.405       .  A
C217       Br224   1.937       .  S
C218        C991   1.418       .  A
C219        C220   1.407       .  A
C219        C990   1.418   1_455  A
C219       Br226   1.934       .  S
C220        C993   1.406   1_455  A
C220       Br225   1.931       .  S
C221        C222   1.402       .  A
C221        C992   1.406       .  A
C222       Br223   1.935       .  S
C227        C228   1.412   1_655  A
C227        C232   1.415       .  A
C227      Br1006   1.929       .  S
C228        C229   1.411       .  A
C229        C230   1.412       .  A
C229       Br236   1.930       .  S
C230        C231   1.414       .  A
C230       Br235   1.930       .  S
C231        C232   1.414   1_455  A
C232      Br1005   1.929       .  S
Br233      C1004   1.929       .  S
Br234       C999   1.929       .  S
C237        C242   1.399       .  A
C237       C1010   1.388       .  A
C237       Br244   1.946       .  S
C238        C239   1.401       .  A
C238       C1009   1.388   1_455  A
C239        C240   1.424       .  A
C239       Br246   1.930       .  S
C240        C241   1.449       .  A
C240       Br245   1.927       .  S
C241       C1014   1.444   1_455  A
C241        C929   1.595   1_455  S
C242       C1013   1.444       .  A
C242       Br243   1.914       .  S
C247        C248   1.452       .  A
C247        C252   1.425       .  A
C247       Br254   1.934       .  S
C248       C1021   1.451       .  A
C248        C469   1.602   1_545  S
C249        C250   1.404       .  A
C249       C1020   1.451       .  A
C249       Br256   1.929   1_545  S
C250       C1023   1.393       .  A
C250       Br255   1.946       .  S
C251        C252   1.402       .  A
C251       C1022   1.393       .  A
C251        C858   1.490       .  S
C252       Br253   1.937       .  S
C257        C262   1.414       .  A
C257       C1030   1.410       .  A
C257       Br264   1.928       .  S
C258        C259   1.411   1_655  A
C258       C1029   1.410       .  A
C259        C260   1.411       .  A
C259       Br266   1.928       .  S
C260        C261   1.411   1_455  A
C260       Br265   1.930       .  S
C261       C1034   1.414       .  A
C262       C1033   1.414       .  A
C262       Br263   1.928       .  S
C267        C268   1.392       .  A
C267        C272   1.407       .  A
C267       Br274   1.945       .  S
C268       C1041   1.397       .  A
C268        C850   1.487       .  S
C269        C270   1.421       .  A
C269       C1040   1.397   1_455  A
C269       Br276   1.947       .  S
C270       C1043   1.471   1_455  A
C270       Br275   1.962       .  S
C271        C272   1.455       .  A
C271       C1042   1.471       .  A
C272       Br273   1.946       .  S
C277        C278   1.406       .  A
C277        C282   1.401       .  A
C277       Br284   1.927       .  S
C278        C665   1.400       .  A
C279        C280   1.387       .  A
C279        C664   1.400       .  A
C279       Br286   1.937       .  S
C280        C667   1.414       .  A
C280       Br285   1.935       .  S
C281        C282   1.403       .  A
C281        C666   1.414       .  A
C282       Br283   1.925       .  S
C287        C292   1.417       .  A
C287        C674   1.462   1_545  A
C287       Br294   1.955       .  S
C288        C289   1.451       .  A
C288        C673   1.462       .  A
C288        C855   1.598   1_455  S
C289        C290   1.405       .  A
C289      Br1068   1.947   1_455  S
C290        C291   1.391       .  A
C290       Br295   1.936       .  S
C291        C678   1.397       .  A
C292        C677   1.397   1_545  A
C292       Br293   1.940       .  S
Br296      C1061   1.947       .  S
C297        C298   1.420       .  A
C297        C302   1.406       .  A
C297       Br304   1.931       .  S
C298        C299   1.413   1_545  A
C299        C300   1.409       .  A
C299       Br306   1.933       .  S
C300        C301   1.411   1_565  A
C300       Br305   1.923       .  S
C301        C302   1.405       .  A
C302       Br303   1.935       .  S
C307        C308   1.412   1_565  A
C307        C312   1.414       .  A
C307       Br314   1.932       .  S
C308        C309   1.415       .  A
C309        C310   1.401       .  A
C309       Br316   1.936       .  S
C310        C311   1.410       .  A
C310       Br315   1.935       .  S
C311        C312   1.423   1_545  A
C312       Br699   1.933       .  S
Br313       C698   1.933       .  S
C317        C322   1.407       .  A
C317        C704   1.409   1_545  A
C317       Br324   1.930       .  S
C318        C319   1.410       .  A
C318        C703   1.409       .  A
C319        C320   1.414       .  A
C319       Br326   1.926       .  S
C320        C321   1.411       .  A
C320       Br325   1.926       .  S
C321        C708   1.412       .  A
C322        C707   1.412       .  A
C322       Br323   1.932       .  S
C327        C328   1.383       .  A
C327        C332   1.376       .  A
C327       Br334   1.925       .  S
C328        C329   1.424       .  A
C329        C330   1.439       .  A
C329       Br336   1.921       .  S
C330        C331   1.462       .  A
C330       Br335   1.935       .  S
C331        C332   1.441       .  A
C332       Br333   1.920       .  S
C337        C338   1.417       .  A
C337        C342   1.403       .  A
C337       Br344   1.928       .  S
C338        C339   1.435   1_565  A
C339        C340   1.411       .  A
C339       Br346   1.934   1_545  S
C340        C341   1.397   1_545  A
C340       Br345   1.929       .  S
C341        C342   1.411       .  A
C342       Br343   1.926       .  S
C347        C348   1.428       .  A
C347        C352   1.408       .  A
C347      Br1126   1.935   1_455  S
C348        C349   1.409   1_545  A
C349        C350   1.405       .  A
C349       Br356   1.934       .  S
C350        C351   1.414   1_565  A
C350       Br355   1.928       .  S
C351        C352   1.402       .  A
C352       Br353   1.933       .  S
Br354      C1119   1.935       .  S
C357        C358   1.403       .  A
C357        C362   1.383       .  A
C357       Br364   1.924       .  S
C358        C745   1.416       .  A
C359        C360   1.433       .  A
C359        C744   1.416   1_545  A
C359       Br366   1.936       .  S
C360        C747   1.459       .  A
C360       Br365   1.941       .  S
C361        C362   1.407       .  A
C361        C746   1.459       .  A
C361        C929   1.604   1_455  S
C362      Br1135   1.921   1_455  S
Br363      C1134   1.921       .  S
C367        C372   1.413       .  A
C367        C754   1.413       .  A
C367       Br374   1.926       .  S
C368        C369   1.416       .  A
C368        C753   1.413       .  A
C369        C370   1.419       .  A
C369       Br376   1.927       .  S
C370        C371   1.411       .  A
C370       Br375   1.927       .  S
C371        C758   1.412       .  A
C372        C757   1.412       .  A
C372       Br373   1.930       .  S
C377        C378   1.456       .  A
C377        C382   1.418       .  A
C377       Br384   1.934       .  S
C378        C765   1.445       .  A
C379        C380   1.418       .  A
C379        C764   1.445   1_545  A
C379       Br386   1.938       .  S
C380        C767   1.405   1_545  A
C380       Br385   1.929       .  S
C381        C382   1.396       .  A
C381        C766   1.405       .  A
C382       Br383   1.940       .  S
C387        C392   1.412   1_545  A
C387        C754   1.505       .  S
C388        C389   1.415       .  A
C388        H393   1.083       .  S
C389        C390   1.399       .  A
C389        C418   1.488       .  S
C390        H394   1.081       .  S
C391        C392   1.407       .  A
C391        C767   1.497       .  S
C392        H395   1.084       .  S
C396        C401   1.410   1_545  A
C396        C757   1.499       .  S
C397        C398   1.417       .  A
C397        H402   1.083       .  S
C398        C399   1.387       .  A
C398        C415   1.483       .  S
C399        H403   1.078       .  S
C400        C401   1.404   1_545  A
C400        C744   1.494   1_545  S
C401        H404   1.083       .  S
O405        C415   1.289       .  A
O405      Ni1185   1.950   1_455  S
O406        C416   1.288       .  A
O406       Ni413   1.942       .  S
O407        C417   1.273       .  A
O407      Ni1185   1.895   1_455  S
O408        C418   1.278       .  A
O408       Ni413   1.917       .  S
O409       Ni414   1.951       .  S
O410      Ni1186   1.927       .  S
O411       Ni414   1.898       .  S
O412      Ni1186   1.910       .  S
Ni413      O1177   1.950       .  S
Ni413      O1179   1.895       .  S
Ni414      O1182   1.927       .  S
Ni414      O1184   1.910       .  S
C416        C727   1.480       .  S
C417        C734   1.488       .  S
C419        C424   1.416   1_545  A
C419        C707   1.488       .  S
C420        C421   1.403       .  A
C420        H425   1.083       .  S
C421        C422   1.389       .  A
C421        C438   1.483       .  S
C422        H426   1.084       .  S
C423        C424   1.412   1_545  A
C423        C714   1.522       .  S
C424        H427   1.074       .  S
O428       Ni436   1.936       .  S
O429      Ni1208   1.920   1_455  S
O430      Ni1208   1.928   1_455  S
O431       Ni436   1.906       .  S
O432        C441   1.282       .  A
O432       Ni437   1.922       .  S
O433        C440   1.284       .  A
O433      Ni1209   1.939   1_455  S
O434        C439   1.279       .  A
O434      Ni1209   1.898   1_455  S
O435        C438   1.280       .  A
O435       Ni437   1.924       .  S
Ni436      O1201   1.920       .  S
Ni436      O1202   1.928       .  S
Ni437      O1205   1.939       .  S
Ni437      O1206   1.898       .  S
C439        C697   1.487       .  S
C440        C444   1.488       .  S
C441        C684   1.485       .  S
C442        C447   1.403       .  A
C442        C704   1.485       .  S
C443        C444   1.415       .  A
C443        H448   1.083       .  S
C444        C445   1.396       .  A
C445        H449   1.077       .  S
C446        C447   1.395       .  A
C446        C677   1.485       .  S
C447        H450   1.084       .  S
C451        C452   1.389       .  A
C451        C456   1.384       .  A
C451        C667   1.454       .  S
C452        C453   1.405       .  A
C452        H457   1.081       .  S
C453        C454   1.429       .  A
C453        C724   1.513       .  S
C454        C455   1.414       .  A
C454        H458   1.077       .  S
C455        C456   1.389       .  A
C455        C687   1.478       .  S
C456        H459   1.085       .  S
C460        C461   1.413       .  A
C460        C465   1.407       .  A
C460        C644   1.491       .  S
C461        C462   1.412       .  A
C461        H466   1.083       .  S
C462        C463   1.392       .  A
C462        C501   1.471       .  S
C463        C464   1.400       .  A
C463        H467   1.086       .  S
C464        C465   1.404       .  A
C464       C1426   1.487       .  S
C465        H468   1.084       .  S
C469        C657   1.612       .  S
C469       C1446   1.598       .  S
C469        C717   1.623       .  S
C470        C471   1.410       .  A
C470        C475   1.413       .  A
C470        C647   1.494       .  S
C471        C472   1.405       .  A
C471        H476   1.083   1_655  S
C472        C473   1.404       .  A
C472       C1409   1.490   1_655  S
C473        C474   1.395       .  A
C473        H477   1.086       .  S
C474        C475   1.409       .  A
C474        C498   1.475       .  S
C475        H478   1.083       .  S
C479        C480   1.417       .  A
C479        C484   1.407       .  A
C479        C617   1.497       .  S
C480        C481   1.415       .  A
C480        H485   1.083       .  S
C481        C482   1.398       .  A
C481        C524   1.485       .  S
C482        C483   1.407       .  A
C482        H486   1.085       .  S
C483        C484   1.399       .  A
C483        C624   1.482       .  S
C484        H487   1.084       .  S
O488       C1270   1.278       .  A
O489        C499   1.279       .  A
O489       Ni496   1.902       .  S
O490        C500   1.278       .  A
O491       C1273   1.282       .  A
O491       Ni496   1.923       .  S
O492        C501   1.280   1_455  A
O492       Ni497   1.921       .  S
O493       C1272   1.280   1_455  A
O494       C1271   1.280   1_455  A
O494       Ni497   1.917       .  S
O495        C498   1.285   1_455  A
Ni496     Ni1269   2.382       .  S
Ni497     Ni1268   2.382   1_455  S
C498       O1260   1.278       .  A
C499        C594   1.493       .  S
C499       O1266   1.280       .  A
C500        C604   1.488       .  S
C500       O1265   1.280       .  A
C501       O1263   1.282       .  A
C502        C503   1.414       .  A
C502        C507   1.409       .  A
C502        C614   1.494       .  S
C503        C504   1.413   1_455  A
C503        H508   1.083       .  S
C504        C505   1.393       .  A
C504        C521   1.478   1_655  S
C505        C506   1.403       .  A
C505        H509   1.086       .  S
C506        C507   1.404   1_655  A
C506        C584   1.482   1_655  S
C507        H510   1.083       .  S
O511        C521   1.282       .  A
O512        C522   1.279       .  A
O512       Ni519   1.911   1_565  S
O513        C523   1.280       .  A
O514        C524   1.284       .  A
O514       Ni519   1.937   1_565  S
O515        C524   1.282   1_655  A
O515       Ni520   1.927       .  S
O516       C1295   1.278       .  A
O516       Ni906   1.909       .  S
O517       C1294   1.282       .  A
O517      Ni1292   1.915       .  S
O518        C521   1.282   1_655  A
Ni519      Ni520   2.385   1_445  S
Ni520       O902   1.909   1_565  S
Ni520      O1289   1.915       .  S
C522        C567   1.476       .  S
C522       O1289   1.282   1_455  A
C523        C574   1.487   1_455  S
C523       O1288   1.278   1_455  A
C525        C526   1.386   1_556  A
C525        C530   1.378       .  A
C525        C554   1.450       .  S
C526        C527   1.406       .  A
C526        H531   1.078       .  S
C527        C528   1.433   1_554  A
C527        C564   1.536       .  S
C528        C529   1.421       .  A
C528        H532   1.069       .  S
C529        C530   1.389       .  A
C529        C597   1.488       .  S
C530        H533   1.086       .  S
C534        C535   1.385       .  A
C534        C539   1.385   1_556  A
C534        C557   1.447       .  S
C535        C536   1.393       .  A
C535        H540   1.085       .  S
C536        C537   1.411       .  A
C536        C607   1.470       .  S
C537        C538   1.412   1_556  A
C537        H541   1.083       .  S
C538        C539   1.394       .  A
C538        C577   1.473       .  S
C539        H542   1.085       .  S
C543        C973   1.585   1_565  S
C543       C1399   1.595       .  S
C543       C1519   1.604   1_565  S
C543        C764   1.638       .  S
C544        C545   1.418       .  A
C544        C549   1.396       .  A
C544        C694   1.489       .  S
C545        C546   1.418       .  A
C545        H550   1.080       .  S
C546        C547   1.393       .  A
C546        C737   1.480       .  S
C547        C548   1.383       .  A
C547        H551   1.085       .  S
C548        C549   1.384       .  A
C548        C664   1.446       .  S
C549        H552   1.085       .  S
C553       C1326   1.410   1_455  A
C553        C558   1.390       .  A
C553       Br560   1.938       .  S
C554       C1325   1.410       .  A
C554        C555   1.403       .  A
C555        C556   1.400       .  A
C555       Br562   1.926   1_556  S
C556        C557   1.405       .  A
C556       Br561   1.927       .  S
C557       C1330   1.403       .  A
C558       C1329   1.403   1_455  A
C558       Br559   1.934       .  S
C563       C1336   1.435       .  A
C563        C568   1.401       .  A
C563      Br1342   1.939       .  S
C564       C1335   1.435       .  A
C564       C1337   1.428       .  A
C565       C1336   1.428       .  A
C565        C566   1.417       .  A
C565      Br1344   1.929       .  S
C566        C567   1.413       .  A
C566       Br571   1.932       .  S
C567        C568   1.393       .  A
C568       Br569   1.931   1_455  S
Br570      C1335   1.939       .  S
Br572      C1337   1.929       .  S
C573       C1346   1.426       .  A
C573        C578   1.406       .  A
C573       Br580   1.936       .  S
C574       C1345   1.426       .  A
C574        C575   1.416   1_655  A
C575        C576   1.404       .  A
C575       Br582   1.935       .  S
C576       C1349   1.408   1_455  A
C576       Br581   1.931       .  S
C577       C1348   1.408       .  A
C577        C578   1.403       .  A
C578       Br579   1.933       .  S
C583        C584   1.401       .  A
C583        C588   1.398       .  A
C583       Br590   1.949       .  S
C584       C1357   1.406   1_455  A
C585       C1356   1.406       .  A
C585        C586   1.418       .  A
C585       Br592   1.925       .  S
C586       C1359   1.424       .  A
C586       Br591   1.931       .  S
C587       C1358   1.424   1_455  A
C587        C588   1.450       .  A
C587        C929   1.585   1_455  S
C588       Br589   1.946       .  S
C593       C1366   1.425   1_455  A
C593        C598   1.412       .  A
C593       Br600   1.935       .  S
C594       C1365   1.425       .  A
C594        C595   1.415       .  A
C595        C596   1.402       .  A
C595       Br602   1.937       .  S
C596        C597   1.413       .  A
C596       Br601   1.936       .  S
C597       C1370   1.410       .  A
C598       C1369   1.410   1_455  A
C598       Br599   1.931       .  S
C603        C604   1.427       .  A
C603        C608   1.405       .  A
C603       Br610   1.937       .  S
C604       C1377   1.418       .  A
C605       C1376   1.418   1_455  A
C605        C606   1.407       .  A
C605       Br612   1.934       .  S
C606       C1379   1.406   1_455  A
C606       Br611   1.931       .  S
C607       C1378   1.406       .  A
C607        C608   1.402       .  A
C608       Br609   1.935       .  S
C613        C614   1.412   1_655  A
C613        C618   1.415       .  A
C613      Br1392   1.929       .  S
C614        C615   1.411       .  A
C615        C616   1.412       .  A
C615       Br622   1.930       .  S
C616        C617   1.414       .  A
C616       Br621   1.930       .  S
C617        C618   1.414   1_455  A
C618      Br1391   1.929       .  S
Br619      C1390   1.929       .  S
Br620      C1385   1.929       .  S
C623       C1396   1.388       .  A
C623        C628   1.399       .  A
C623       Br630   1.946       .  S
C624       C1395   1.388   1_455  A
C624        C625   1.401       .  A
C625        C626   1.424       .  A
C625       Br632   1.930       .  S
C626        C627   1.449       .  A
C626       Br631   1.927       .  S
C627       C1400   1.444   1_455  A
C627       C1315   1.595   1_455  S
C628       C1399   1.444       .  A
C628       Br629   1.914       .  S
C633        C634   1.452       .  A
C633        C638   1.425       .  A
C633       Br640   1.934       .  S
C634       C1407   1.451       .  A
C635       C1406   1.451       .  A
C635        C636   1.404       .  A
C635       Br642   1.929       .  S
C636       C1409   1.393       .  A
C636       Br641   1.946       .  S
C637       C1408   1.393       .  A
C637        C638   1.402       .  A
C637       C1244   1.490       .  S
C638       Br639   1.937       .  S
C643       C1416   1.410       .  A
C643        C648   1.414       .  A
C643       Br650   1.928       .  S
C644       C1415   1.410       .  A
C644        C645   1.411   1_655  A
C645        C646   1.411       .  A
C645       Br652   1.928       .  S
C646        C647   1.411   1_455  A
C646       Br651   1.930       .  S
C647       C1420   1.414       .  A
C648       C1419   1.414       .  A
C648       Br649   1.928       .  S
C653        C654   1.392       .  A
C653        C658   1.407       .  A
C653       Br660   1.945       .  S
C654       C1427   1.397       .  A
C654       C1236   1.487       .  S
C655       C1426   1.397   1_455  A
C655        C656   1.421       .  A
C655       Br662   1.947       .  S
C656       C1429   1.471   1_455  A
C656       Br661   1.962       .  S
C657       C1428   1.471       .  A
C657        C658   1.455       .  A
C658       Br659   1.946   1_565  S
C663        C664   1.406       .  A
C663        C668   1.401       .  A
C663       Br670   1.927       .  S
C665        C666   1.387       .  A
C665       Br672   1.937   1_545  S
C666       Br671   1.935   1_545  S
C667        C668   1.403       .  A
C668       Br669   1.925       .  S
C673        C678   1.417       .  A
C673       Br680   1.955       .  S
C674        C675   1.451       .  A
C674       C1241   1.598   1_455  S
C675        C676   1.405       .  A
C675      Br1454   1.947   1_455  S
C676        C677   1.391       .  A
C676       Br681   1.936       .  S
C678       Br679   1.940       .  S
Br682      C1447   1.947       .  S
C683        C684   1.420       .  A
C683        C688   1.406       .  A
C683       Br690   1.931       .  S
C684        C685   1.413       .  A
C685        C686   1.409       .  A
C685       Br692   1.933       .  S
C686        C687   1.411       .  A
C686       Br691   1.923       .  S
C687        C688   1.405       .  A
C688       Br689   1.935       .  S
C693        C694   1.412       .  A
C693        C698   1.414       .  A
C693       Br700   1.932       .  S
C694        C695   1.415       .  A
C695        C696   1.401       .  A
C695       Br702   1.936       .  S
C696        C697   1.410       .  A
C696       Br701   1.935       .  S
C697        C698   1.423       .  A
C703        C708   1.407       .  A
C703       Br710   1.930       .  S
C704        C705   1.410       .  A
C705        C706   1.414       .  A
C705       Br712   1.926       .  S
C706        C707   1.411   1_565  A
C706       Br711   1.926       .  S
C708       Br709   1.932       .  S
C713        C714   1.383       .  A
C713        C718   1.376       .  A
C713       Br720   1.925   1_545  S
C714        C715   1.424   1_545  A
C715        C716   1.439       .  A
C715       Br722   1.921       .  S
C716        C717   1.462       .  A
C716       Br721   1.935       .  S
C717        C718   1.441   1_565  A
C718       Br719   1.920       .  S
C723        C724   1.417       .  A
C723        C728   1.403       .  A
C723       Br730   1.928       .  S
C724        C725   1.435       .  A
C725        C726   1.411       .  A
C725       Br732   1.934       .  S
C726        C727   1.397       .  A
C726       Br731   1.929       .  S
C727        C728   1.411       .  A
C728       Br729   1.926       .  S
C733        C734   1.428       .  A
C733        C738   1.408       .  A
C733      Br1512   1.935   1_455  S
C734        C735   1.409       .  A
C735        C736   1.405       .  A
C735       Br742   1.934       .  S
C736        C737   1.414       .  A
C736       Br741   1.928       .  S
C737        C738   1.402       .  A
C738       Br739   1.933       .  S
Br740      C1505   1.935       .  S
C743        C744   1.403       .  A
C743        C748   1.383       .  A
C743       Br750   1.924       .  S
C745        C746   1.433       .  A
C745       Br752   1.936       .  S
C746       Br751   1.941       .  S
C747        C748   1.407   1_545  A
C747       C1315   1.604   1_445  S
C748      Br1521   1.921   1_465  S
Br749      C1520   1.921   1_545  S
C753        C758   1.413       .  A
C753       Br760   1.926       .  S
C754        C755   1.416   1_545  A
C755        C756   1.419       .  A
C755       Br762   1.927       .  S
C756        C757   1.411   1_565  A
C756       Br761   1.927       .  S
C758       Br759   1.930       .  S
C763        C764   1.456       .  A
C763        C768   1.418       .  A
C763       Br770   1.934       .  S
C765        C766   1.418       .  A
C765       Br772   1.938       .  S
C766       Br771   1.929       .  S
C767        C768   1.396       .  A
C768       Br769   1.940       .  S
C773       C1160   1.416       .  A
C773        C778   1.412       .  A
C773       C1140   1.505       .  S
C774       C1159   1.416       .  A
C774        C775   1.415   1_545  A
C774        H779   1.083       .  S
C775        C776   1.399       .  A
C775        C804   1.488       .  S
C776       C1163   1.408       .  A
C776        H780   1.081       .  S
C777       C1162   1.408       .  A
C777        C778   1.407       .  A
C777       C1153   1.497       .  S
C778        H781   1.084       .  S
C782       C1169   1.420       .  A
C782        C787   1.410       .  A
C782       C1143   1.499       .  S
C783       C1168   1.420       .  A
C783        C784   1.417       .  A
C783        H788   1.083       .  S
C784        C785   1.387       .  A
C784        C801   1.483       .  S
C785       C1172   1.404       .  A
C785        H789   1.078       .  S
C786       C1171   1.404       .  A
C786        C787   1.404       .  A
C786       C1130   1.494       .  S
C787        H790   1.083       .  S
O791        C801   1.289       .  A
O792        C802   1.288   1_545  A
O792       Ni799   1.942       .  S
O793        C803   1.273       .  A
O794        C804   1.278   1_545  A
O794       Ni799   1.917       .  S
O795       C1190   1.289       .  A
O795       Ni800   1.951   1_655  S
O796       C1189   1.286       .  A
O797       C1188   1.274       .  A
O797       Ni800   1.898   1_655  S
O798       C1187   1.276       .  A
Ni799     Ni1186   2.384   1_645  S
Ni800     Ni1185   2.384   1_455  S
C801       O1184   1.276   1_545  A
C802       C1113   1.480       .  S
C802       O1183   1.274       .  A
C803       C1120   1.488       .  S
C803       O1182   1.286   1_545  A
C804       O1181   1.289       .  A
C805       C1192   1.411       .  A
C805        C810   1.416       .  A
C805       C1093   1.488       .  S
C806       C1191   1.411       .  A
C806        C807   1.403       .  A
C806        H811   1.083       .  S
C807        C808   1.389       .  A
C807        C824   1.483       .  S
C808       C1195   1.420       .  A
C808        H812   1.084       .  S
C809       C1194   1.420       .  A
C809        C810   1.412       .  A
C809       C1100   1.522       .  S
C810        H813   1.074       .  S
O814       C1210   1.285       .  A
O814       Ni822   1.936       .  S
O815       C1211   1.281       .  A
O816       C1212   1.283       .  A
O817       C1213   1.279       .  A
O817       Ni822   1.906       .  S
O818        C827   1.282       .  A
O818       Ni823   1.922       .  S
O819        C826   1.284       .  A
O820        C825   1.279       .  A
O821        C824   1.280       .  A
O821       Ni823   1.924       .  S
Ni822     Ni1209   2.384       .  S
Ni823     Ni1208   2.384   1_545  S
C824       O1200   1.285   1_545  A
C825       C1083   1.487       .  S
C825       O1201   1.281   1_545  A
C826        C830   1.488       .  S
C826       O1202   1.283   1_545  A
C827       C1070   1.485       .  S
C827       O1203   1.279   1_545  A
C828       C1215   1.416       .  A
C828        C833   1.403       .  A
C828       C1090   1.485       .  S
C829       C1214   1.416   1_545  A
C829        C830   1.415       .  A
C829        H834   1.083       .  S
C830        C831   1.396   1_545  A
C831       C1218   1.403       .  A
C831        H835   1.077   1_565  S
C832       C1217   1.403       .  A
C832        C833   1.395       .  A
C832       C1063   1.485       .  S
C833        H836   1.084       .  S
C837        C838   1.389       .  A
C837        C842   1.384       .  A
C837       C1053   1.454       .  S
C838        C839   1.405       .  A
C838        H843   1.081       .  S
C839        C840   1.429   1_545  A
C839       C1110   1.513   1_545  S
C840        C841   1.414   1_565  A
C840        H844   1.077       .  S
C841        C842   1.389       .  A
C841       C1073   1.478       .  S
C842        H845   1.085       .  S
C846        C847   1.413       .  A
C846        C851   1.407       .  A
C846       C1030   1.491       .  S
C847        C848   1.412       .  A
C847        H852   1.083       .  S
C848        C849   1.392       .  A
C848        C887   1.471       .  S
C849        C850   1.400       .  A
C849        H853   1.086       .  S
C850        C851   1.404       .  A
C851        H854   1.084       .  S
C855       C1406   1.602   1_655  S
C855       C1043   1.612       .  S
C855       C1103   1.623       .  S
C856        C857   1.410       .  A
C856        C861   1.413       .  A
C856       C1033   1.494       .  S
C857        C858   1.405       .  A
C857        H862   1.083       .  S
C858        C859   1.404       .  A
C859        C860   1.395       .  A
C859        H863   1.086       .  S
C860        C861   1.409       .  A
C860        C884   1.475       .  S
C861        H864   1.083       .  S
C865        C866   1.417       .  A
C865        C870   1.407       .  A
C865       C1003   1.497       .  S
C866        C867   1.415       .  A
C866        H871   1.083       .  S
C867        C868   1.398       .  A
C867        C910   1.485       .  S
C868        C869   1.407       .  A
C868        H872   1.085       .  S
C869        C870   1.399       .  A
C869       C1010   1.482       .  S
C870        H873   1.084       .  S
O874      Ni1268   1.914   1_545  S
O875        C885   1.279       .  A
O875       Ni882   1.902       .  S
O876        C886   1.278       .  A
O876      Ni1268   1.908   1_545  S
O877       Ni882   1.923       .  S
O878        C887   1.280       .  A
O878       Ni883   1.921       .  S
O879      Ni1269   1.908   1_545  S
O880       Ni883   1.917       .  S
O881        C884   1.285       .  A
O881      Ni1269   1.937   1_545  S
Ni882      O1260   1.914       .  S
Ni882      O1262   1.908       .  S
Ni883      O1265   1.908       .  S
Ni883      O1267   1.937       .  S
C885        C980   1.493       .  S
C886        C990   1.488       .  S
C888        C889   1.414       .  A
C888        C893   1.409       .  A
C888       C1000   1.494       .  S
C889        C890   1.413       .  A
C889        H894   1.083       .  S
C890        C891   1.393       .  A
C890        C907   1.478       .  S
C891        C892   1.403       .  A
C891        H895   1.086       .  S
C892        C893   1.404       .  A
C892        C970   1.482       .  S
C893        H896   1.083       .  S
O897        C907   1.282       .  A
O897      Ni1291   1.925       .  S
O898        C908   1.279       .  A
O898       Ni905   1.911       .  S
O899        C909   1.280       .  A
O899      Ni1291   1.907       .  S
O900        C910   1.284       .  A
O900       Ni905   1.937       .  S
O901        C910   1.282       .  A
O901       Ni906   1.927       .  S
O904        C907   1.282       .  A
O904      Ni1292   1.924   1_545  S
Ni905      O1283   1.925       .  S
Ni905      O1285   1.907       .  S
Ni905      Ni906   2.385       .  S
Ni906      O1290   1.924       .  S
C908        C953   1.476       .  S
C909        C960   1.487       .  S
C911        C912   1.386   1_556  A
C911        C916   1.378       .  A
C911        C940   1.450       .  S
C912        C913   1.406       .  A
C912        H917   1.078       .  S
C913        C914   1.433   1_554  A
C913        C950   1.536   1_655  S
C914        C915   1.421       .  A
C914        H918   1.069       .  S
C915        C916   1.389       .  A
C915        C983   1.488       .  S
C916        H919   1.086       .  S
C920        C921   1.385       .  A
C920        C925   1.385   1_556  A
C920        C943   1.447       .  S
C921        C922   1.393       .  A
C921        H926   1.085       .  S
C922        C923   1.411   1_655  A
C922        C993   1.470       .  S
C923        C924   1.412   1_456  A
C923        H927   1.083       .  S
C924        C925   1.394       .  A
C924        C963   1.473       .  S
C925        H928   1.085       .  S
C929       C1150   1.638       .  S
C930        C931   1.418       .  A
C930        C935   1.396       .  A
C930       C1080   1.489       .  S
C931        C932   1.418       .  A
C931        H936   1.080       .  S
C932        C933   1.393       .  A
C932       C1123   1.480       .  S
C933        C934   1.383       .  A
C933        H937   1.085       .  S
C934        C935   1.384       .  A
C934       C1050   1.446       .  S
C935        H938   1.085       .  S
C939        C944   1.390       .  A
C939       Br946   1.938       .  S
C940        C941   1.403       .  A
C941        C942   1.400       .  A
C941       Br948   1.926   1_556  S
C942        C943   1.405       .  A
C942       Br947   1.927       .  S
C944       Br945   1.934       .  S
C949        C954   1.401       .  A
C951        C952   1.417       .  A
C952        C953   1.413       .  A
C952       Br957   1.932       .  S
C953        C954   1.393       .  A
C954       Br955   1.931       .  S
C959        C964   1.406       .  A
C959       Br966   1.936       .  S
C960        C961   1.416       .  A
C961        C962   1.404       .  A
C961       Br968   1.935       .  S
C962       Br967   1.931       .  S
C963        C964   1.403       .  A
C964       Br965   1.933       .  S
C969        C970   1.401       .  A
C969        C974   1.398       .  A
C969       Br976   1.949       .  S
C971        C972   1.418       .  A
C971       Br978   1.925       .  S
C972       Br977   1.931       .  S
C973        C974   1.450       .  A
C974       Br975   1.946   1_545  S
C979        C984   1.412       .  A
C979       Br986   1.935       .  S
C980        C981   1.415       .  A
C981        C982   1.402       .  A
C981       Br988   1.937       .  S
C982        C983   1.413       .  A
C982       Br987   1.936       .  S
C984       Br985   1.931       .  S
C989        C990   1.427       .  A
C989        C994   1.405       .  A
C989       Br996   1.937       .  S
C991        C992   1.407       .  A
C991       Br998   1.934       .  S
C992       Br997   1.931       .  S
C993        C994   1.402       .  A
C994       Br995   1.935       .  S
C999       C1000   1.412       .  A
C999       C1004   1.415       .  A
C1000      C1001   1.411       .  A
C1001      C1002   1.412       .  A
C1001     Br1008   1.930       .  S
C1002      C1003   1.414       .  A
C1002     Br1007   1.930       .  S
C1003      C1004   1.414       .  A
C1009      C1014   1.399       .  A
C1009     Br1016   1.946       .  S
C1010      C1011   1.401       .  A
C1011      C1012   1.424       .  A
C1011     Br1018   1.930       .  S
C1012      C1013   1.449       .  A
C1012     Br1017   1.927       .  S
C1014     Br1015   1.914       .  S
C1019      C1020   1.452   1_655  A
C1019      C1024   1.425       .  A
C1019     Br1026   1.934       .  S
C1020      C1241   1.602   1_445  S
C1021      C1022   1.404       .  A
C1021     Br1028   1.929   1_545  S
C1022     Br1027   1.946       .  S
C1023      C1024   1.402   1_455  A
C1024     Br1025   1.937       .  S
C1029      C1034   1.414       .  A
C1029     Br1036   1.928       .  S
C1030      C1031   1.411       .  A
C1031      C1032   1.411       .  A
C1031     Br1038   1.928       .  S
C1032      C1033   1.411       .  A
C1032     Br1037   1.930       .  S
C1034     Br1035   1.928       .  S
C1039      C1040   1.392       .  A
C1039      C1044   1.407       .  A
C1039     Br1046   1.945       .  S
C1041      C1042   1.421       .  A
C1041     Br1048   1.947       .  S
C1042     Br1047   1.962       .  S
C1043      C1044   1.455       .  A
C1044     Br1045   1.946       .  S
C1049      C1050   1.406       .  A
C1049      C1054   1.401       .  A
C1049     Br1056   1.927       .  S
C1050      C1437   1.400       .  A
C1051      C1436   1.400       .  A
C1051      C1052   1.387       .  A
C1051     Br1058   1.937       .  S
C1052      C1439   1.414       .  A
C1052     Br1057   1.935       .  S
C1053      C1438   1.414       .  A
C1053      C1054   1.403       .  A
C1054     Br1055   1.925       .  S
C1059      C1446   1.462   1_545  A
C1059      C1064   1.417       .  A
C1059     Br1066   1.955       .  S
C1060      C1445   1.462       .  A
C1060      C1061   1.451       .  A
C1061      C1062   1.405       .  A
C1062      C1063   1.391       .  A
C1062     Br1067   1.936       .  S
C1063      C1450   1.397       .  A
C1064      C1449   1.397   1_545  A
C1064     Br1065   1.940       .  S
C1069      C1070   1.420       .  A
C1069      C1074   1.406       .  A
C1069     Br1076   1.931       .  S
C1070      C1071   1.413   1_545  A
C1071      C1072   1.409       .  A
C1071     Br1078   1.933       .  S
C1072      C1073   1.411   1_565  A
C1072     Br1077   1.923       .  S
C1073      C1074   1.405       .  A
C1074     Br1075   1.935       .  S
C1079      C1080   1.412   1_565  A
C1079      C1084   1.414       .  A
C1079     Br1086   1.932       .  S
C1080      C1081   1.415       .  A
C1081      C1082   1.401       .  A
C1081     Br1088   1.936       .  S
C1082      C1083   1.410       .  A
C1082     Br1087   1.935       .  S
C1083      C1084   1.423   1_545  A
C1084     Br1471   1.933       .  S
Br1085     C1470   1.933       .  S
C1089      C1476   1.409   1_545  A
C1089      C1094   1.407       .  A
C1089     Br1096   1.930       .  S
C1090      C1475   1.409       .  A
C1090      C1091   1.410       .  A
C1091      C1092   1.414       .  A
C1091     Br1098   1.926       .  S
C1092      C1093   1.411       .  A
C1092     Br1097   1.926       .  S
C1093      C1480   1.412       .  A
C1094      C1479   1.412       .  A
C1094     Br1095   1.932       .  S
C1099      C1100   1.383       .  A
C1099      C1104   1.376       .  A
C1099     Br1106   1.925       .  S
C1100      C1101   1.424       .  A
C1101      C1102   1.439       .  A
C1101     Br1108   1.921       .  S
C1102      C1103   1.462       .  A
C1102     Br1107   1.935       .  S
C1103      C1104   1.441       .  A
C1104     Br1105   1.920   1_655  S
C1109      C1110   1.417       .  A
C1109      C1114   1.403       .  A
C1109     Br1116   1.928       .  S
C1110      C1111   1.435   1_565  A
C1111      C1112   1.411       .  A
C1111     Br1118   1.934   1_545  S
C1112      C1113   1.397   1_545  A
C1112     Br1117   1.929       .  S
C1113      C1114   1.411       .  A
C1114     Br1115   1.926       .  S
C1119      C1120   1.428       .  A
C1119      C1124   1.408       .  A
C1120      C1121   1.409   1_545  A
C1121      C1122   1.405       .  A
C1121     Br1128   1.934       .  S
C1122      C1123   1.414   1_565  A
C1122     Br1127   1.928       .  S
C1123      C1124   1.402       .  A
C1124     Br1125   1.933       .  S
C1129      C1130   1.403       .  A
C1129      C1134   1.383       .  A
C1129     Br1136   1.924       .  S
C1130      C1517   1.416       .  A
C1131      C1516   1.416   1_545  A
C1131      C1132   1.433       .  A
C1131     Br1138   1.936       .  S
C1132      C1519   1.459       .  A
C1132     Br1137   1.941       .  S
C1133      C1518   1.459       .  A
C1133      C1134   1.407       .  A
C1139      C1526   1.413       .  A
C1139      C1144   1.413       .  A
C1139     Br1146   1.926       .  S
C1140      C1525   1.413       .  A
C1140      C1141   1.416       .  A
C1141      C1142   1.419       .  A
C1141     Br1148   1.927       .  S
C1142      C1143   1.411       .  A
C1142     Br1147   1.927       .  S
C1143      C1530   1.412       .  A
C1144      C1529   1.412       .  A
C1144     Br1145   1.930       .  S
C1149      C1150   1.456       .  A
C1149      C1154   1.418       .  A
C1149     Br1156   1.934       .  S
C1150      C1537   1.445       .  A
C1151      C1536   1.445   1_545  A
C1151      C1152   1.418       .  A
C1151     Br1158   1.938       .  S
C1152      C1539   1.405   1_545  A
C1152     Br1157   1.929       .  S
C1153      C1538   1.405       .  A
C1153      C1154   1.396       .  A
C1154     Br1155   1.940       .  S
C1159      C1164   1.412   1_545  A
C1159      C1526   1.505       .  S
C1160      C1161   1.415       .  A
C1160      H1165   1.083       .  S
C1161      C1162   1.399       .  A
C1161      C1190   1.488       .  S
C1162      H1166   1.081       .  S
C1163      C1164   1.407       .  A
C1163      C1539   1.497       .  S
C1164      H1167   1.084       .  S
C1168      C1173   1.410   1_545  A
C1168      C1529   1.499       .  S
C1169      C1170   1.417       .  A
C1169      H1174   1.083       .  S
C1170      C1171   1.387       .  A
C1170      C1187   1.483       .  S
C1171      H1175   1.078       .  S
C1172      C1173   1.404   1_545  A
C1172      C1516   1.494   1_545  S
C1173      H1176   1.083       .  S
O1177      C1187   1.289       .  A
O1178      C1188   1.288       .  A
O1178     Ni1185   1.942       .  S
O1179      C1189   1.273       .  A
O1180      C1190   1.278       .  A
O1180     Ni1185   1.917       .  S
O1181     Ni1186   1.951   1_655  S
O1183     Ni1186   1.898   1_655  S
C1188      C1499   1.480       .  S
C1189      C1506   1.488       .  S
C1191      C1196   1.416   1_545  A
C1191      C1479   1.488       .  S
C1192      C1193   1.403       .  A
C1192      H1197   1.083       .  S
C1193      C1194   1.389       .  A
C1193      C1210   1.483       .  S
C1194      H1198   1.084       .  S
C1195      C1196   1.412   1_545  A
C1195      C1486   1.522       .  S
C1196      H1199   1.074       .  S
O1200     Ni1208   1.936       .  S
O1203     Ni1208   1.906       .  S
O1204      C1213   1.282       .  A
O1204     Ni1209   1.922       .  S
O1205      C1212   1.284       .  A
O1206      C1211   1.279       .  A
O1207      C1210   1.280       .  A
O1207     Ni1209   1.924       .  S
C1211      C1469   1.487       .  S
C1212      C1216   1.488       .  S
C1213      C1456   1.485       .  S
C1214      C1219   1.403       .  A
C1214      C1476   1.485       .  S
C1215      C1216   1.415       .  A
C1215      H1220   1.083       .  S
C1216      C1217   1.396       .  A
C1217      H1221   1.077       .  S
C1218      C1219   1.395       .  A
C1218      C1449   1.485       .  S
C1219      H1222   1.084       .  S
C1223      C1224   1.389       .  A
C1223      C1228   1.384       .  A
C1223      C1439   1.454       .  S
C1224      C1225   1.405       .  A
C1224      H1229   1.081       .  S
C1225      C1226   1.429       .  A
C1225      C1496   1.513       .  S
C1226      C1227   1.414       .  A
C1226      H1230   1.077       .  S
C1227      C1228   1.389       .  A
C1227      C1459   1.478       .  S
C1228      H1231   1.085       .  S
C1232      C1233   1.413       .  A
C1232      C1237   1.407       .  A
C1232      C1416   1.491       .  S
C1233      C1234   1.412       .  A
C1233      H1238   1.083       .  S
C1234      C1235   1.392       .  A
C1234      C1273   1.471       .  S
C1235      C1236   1.400       .  A
C1235      H1239   1.086       .  S
C1236      C1237   1.404       .  A
C1237      H1240   1.084       .  S
C1241      C1429   1.612       .  S
C1241      C1489   1.623       .  S
C1242      C1243   1.410       .  A
C1242      C1247   1.413       .  A
C1242      C1419   1.494       .  S
C1243      C1244   1.405       .  A
C1243      H1248   1.083       .  S
C1244      C1245   1.404       .  A
C1245      C1246   1.395       .  A
C1245      H1249   1.086       .  S
C1246      C1247   1.409       .  A
C1246      C1270   1.475       .  S
C1247      H1250   1.083       .  S
C1251      C1252   1.417       .  A
C1251      C1256   1.407       .  A
C1251      C1389   1.497       .  S
C1252      C1253   1.415       .  A
C1252      H1257   1.083       .  S
C1253      C1254   1.398       .  A
C1253      C1296   1.485       .  S
C1254      C1255   1.407       .  A
C1254      H1258   1.085       .  S
C1255      C1256   1.399       .  A
C1255      C1396   1.482       .  S
C1256      H1259   1.084       .  S
O1261      C1271   1.279       .  A
O1261     Ni1268   1.902       .  S
O1262      C1272   1.278       .  A
O1263     Ni1268   1.923       .  S
O1264      C1273   1.280       .  A
O1264     Ni1269   1.921       .  S
O1266     Ni1269   1.917       .  S
O1267      C1270   1.285       .  A
C1271      C1366   1.493       .  S
C1272      C1376   1.488       .  S
C1274      C1275   1.414       .  A
C1274      C1279   1.409       .  A
C1274      C1386   1.494       .  S
C1275      C1276   1.413       .  A
C1275      H1280   1.083       .  S
C1276      C1277   1.393       .  A
C1276      C1293   1.478       .  S
C1277      C1278   1.403       .  A
C1277      H1281   1.086       .  S
C1278      C1279   1.404       .  A
C1278      C1356   1.482       .  S
C1279      H1282   1.083       .  S
O1283      C1293   1.282       .  A
O1284      C1294   1.279       .  A
O1284     Ni1291   1.911   1_565  S
O1285      C1295   1.280       .  A
O1286      C1296   1.284       .  A
O1286     Ni1291   1.937   1_565  S
O1287      C1296   1.282       .  A
O1287     Ni1292   1.927       .  S
O1290      C1293   1.282       .  A
Ni1291    Ni1292   2.385   1_545  S
C1294      C1339   1.476       .  S
C1295      C1346   1.487       .  S
C1297      C1298   1.386   1_556  A
C1297      C1302   1.378       .  A
C1297      C1326   1.450       .  S
C1298      C1299   1.406       .  A
C1298      H1303   1.078       .  S
C1299      C1300   1.433   1_554  A
C1299      C1336   1.536   1_655  S
C1300      C1301   1.421       .  A
C1300      H1304   1.069       .  S
C1301      C1302   1.389       .  A
C1301      C1369   1.488       .  S
C1302      H1305   1.086       .  S
C1306      C1307   1.385       .  A
C1306      C1311   1.385   1_556  A
C1306      C1329   1.447       .  S
C1307      C1308   1.393       .  A
C1307      H1312   1.085       .  S
C1308      C1309   1.411   1_655  A
C1308      C1379   1.470       .  S
C1309      C1310   1.412   1_456  A
C1309      H1313   1.083       .  S
C1310      C1311   1.394       .  A
C1310      C1349   1.473       .  S
C1311      H1314   1.085       .  S
C1315      C1536   1.638       .  S
C1316      C1317   1.418       .  A
C1316      C1321   1.396       .  A
C1316      C1466   1.489       .  S
C1317      C1318   1.418       .  A
C1317      H1322   1.080       .  S
C1318      C1319   1.393       .  A
C1318      C1509   1.480       .  S
C1319      C1320   1.383       .  A
C1319      H1323   1.085       .  S
C1320      C1321   1.384       .  A
C1320      C1436   1.446       .  S
C1321      H1324   1.085       .  S
C1325      C1330   1.390       .  A
C1325     Br1332   1.938       .  S
C1326      C1327   1.403       .  A
C1327      C1328   1.400       .  A
C1327     Br1334   1.926   1_556  S
C1328      C1329   1.405       .  A
C1328     Br1333   1.927       .  S
C1330     Br1331   1.934       .  S
C1335      C1340   1.401       .  A
C1337      C1338   1.417       .  A
C1338      C1339   1.413       .  A
C1338     Br1343   1.932       .  S
C1339      C1340   1.393       .  A
C1340     Br1341   1.931       .  S
C1345      C1350   1.406       .  A
C1345     Br1352   1.936       .  S
C1346      C1347   1.416       .  A
C1347      C1348   1.404       .  A
C1347     Br1354   1.935       .  S
C1348     Br1353   1.931       .  S
C1349      C1350   1.403       .  A
C1350     Br1351   1.933       .  S
C1355      C1356   1.401       .  A
C1355      C1360   1.398       .  A
C1355     Br1362   1.949       .  S
C1357      C1358   1.418       .  A
C1357     Br1364   1.925       .  S
C1358     Br1363   1.931       .  S
C1359      C1360   1.450       .  A
C1360     Br1361   1.946       .  S
C1365      C1370   1.412       .  A
C1365     Br1372   1.935       .  S
C1366      C1367   1.415       .  A
C1367      C1368   1.402       .  A
C1367     Br1374   1.937       .  S
C1368      C1369   1.413       .  A
C1368     Br1373   1.936       .  S
C1370     Br1371   1.931       .  S
C1375      C1376   1.427       .  A
C1375      C1380   1.405       .  A
C1375     Br1382   1.937       .  S
C1377      C1378   1.407       .  A
C1377     Br1384   1.934       .  S
C1378     Br1383   1.931       .  S
C1379      C1380   1.402       .  A
C1380     Br1381   1.935       .  S
C1385      C1386   1.412       .  A
C1385      C1390   1.415       .  A
C1386      C1387   1.411       .  A
C1387      C1388   1.412       .  A
C1387     Br1394   1.930       .  S
C1388      C1389   1.414       .  A
C1388     Br1393   1.930       .  S
C1389      C1390   1.414       .  A
C1395      C1400   1.399       .  A
C1395     Br1402   1.946       .  S
C1396      C1397   1.401       .  A
C1397      C1398   1.424       .  A
C1397     Br1404   1.930       .  S
C1398      C1399   1.449       .  A
C1398     Br1403   1.927       .  S
C1400     Br1401   1.914       .  S
C1405      C1406   1.452   1_655  A
C1405      C1410   1.425       .  A
C1405     Br1412   1.934       .  S
C1407      C1408   1.404       .  A
C1407     Br1414   1.929       .  S
C1408     Br1413   1.946       .  S
C1409      C1410   1.402   1_455  A
C1410     Br1411   1.937       .  S
C1415      C1420   1.414       .  A
C1415     Br1422   1.928       .  S
C1416      C1417   1.411       .  A
C1417      C1418   1.411       .  A
C1417     Br1424   1.928       .  S
C1418      C1419   1.411       .  A
C1418     Br1423   1.930       .  S
C1420     Br1421   1.928       .  S
C1425      C1426   1.392       .  A
C1425      C1430   1.407       .  A
C1425     Br1432   1.945       .  S
C1427      C1428   1.421       .  A
C1427     Br1434   1.947       .  S
C1428     Br1433   1.962       .  S
C1429      C1430   1.455       .  A
C1430     Br1431   1.946   1_565  S
C1435      C1436   1.406       .  A
C1435      C1440   1.401       .  A
C1435     Br1442   1.927       .  S
C1437      C1438   1.387       .  A
C1437     Br1444   1.937   1_545  S
C1438     Br1443   1.935   1_545  S
C1439      C1440   1.403       .  A
C1440     Br1441   1.925       .  S
C1445      C1450   1.417       .  A
C1445     Br1452   1.955       .  S
C1446      C1447   1.451       .  A
C1447      C1448   1.405       .  A
C1448      C1449   1.391       .  A
C1448     Br1453   1.936       .  S
C1450     Br1451   1.940       .  S
C1455      C1456   1.420       .  A
C1455      C1460   1.406       .  A
C1455     Br1462   1.931       .  S
C1456      C1457   1.413       .  A
C1457      C1458   1.409       .  A
C1457     Br1464   1.933       .  S
C1458      C1459   1.411       .  A
C1458     Br1463   1.923       .  S
C1459      C1460   1.405       .  A
C1460     Br1461   1.935       .  S
C1465      C1466   1.412       .  A
C1465      C1470   1.414       .  A
C1465     Br1472   1.932       .  S
C1466      C1467   1.415       .  A
C1467      C1468   1.401       .  A
C1467     Br1474   1.936       .  S
C1468      C1469   1.410       .  A
C1468     Br1473   1.935       .  S
C1469      C1470   1.423       .  A
C1475      C1480   1.407       .  A
C1475     Br1482   1.930       .  S
C1476      C1477   1.410       .  A
C1477      C1478   1.414       .  A
C1477     Br1484   1.926       .  S
C1478      C1479   1.411   1_565  A
C1478     Br1483   1.926       .  S
C1480     Br1481   1.932       .  S
C1485      C1486   1.383       .  A
C1485      C1490   1.376       .  A
C1485     Br1492   1.925   1_545  S
C1486      C1487   1.424   1_545  A
C1487      C1488   1.439       .  A
C1487     Br1494   1.921       .  S
C1488      C1489   1.462       .  A
C1488     Br1493   1.935       .  S
C1489      C1490   1.441   1_565  A
C1490     Br1491   1.920   1_655  S
C1495      C1496   1.417       .  A
C1495      C1500   1.403       .  A
C1495     Br1502   1.928       .  S
C1496      C1497   1.435       .  A
C1497      C1498   1.411       .  A
C1497     Br1504   1.934       .  S
C1498      C1499   1.397       .  A
C1498     Br1503   1.929       .  S
C1499      C1500   1.411       .  A
C1500     Br1501   1.926       .  S
C1505      C1506   1.428       .  A
C1505      C1510   1.408       .  A
C1506      C1507   1.409       .  A
C1507      C1508   1.405       .  A
C1507     Br1514   1.934       .  S
C1508      C1509   1.414       .  A
C1508     Br1513   1.928       .  S
C1509      C1510   1.402       .  A
C1510     Br1511   1.933       .  S
C1515      C1516   1.403       .  A
C1515      C1520   1.383       .  A
C1515     Br1522   1.924       .  S
C1517      C1518   1.433       .  A
C1517     Br1524   1.936       .  S
C1518     Br1523   1.941       .  S
C1519      C1520   1.407   1_545  A
C1525      C1530   1.413       .  A
C1525     Br1532   1.926       .  S
C1526      C1527   1.416   1_545  A
C1527      C1528   1.419       .  A
C1527     Br1534   1.927       .  S
C1528      C1529   1.411   1_565  A
C1528     Br1533   1.927       .  S
C1530     Br1531   1.930       .  S
C1535      C1536   1.456       .  A
C1535      C1540   1.418       .  A
C1535     Br1542   1.934       .  S
C1537      C1538   1.418       .  A
C1537     Br1544   1.938       .  S
C1538     Br1543   1.929       .  S
C1539      C1540   1.396       .  A
C1540     Br1541   1.940       .  S
