geometry optimzed in LAMMPS
_audit_creation_date              2020-11-30 
_audit_creation_method            'lammps2cif' 
_symmetry_space_group_name_H-M    'P1' 
_symmetry_Int_Tables_number       1 
_symmetry_cell_setting            triclinic 
loop_ 
_symmetry_equiv_pos_as_xyz 
  x,y,z 
_cell_length_a                    34.29891889 
_cell_length_b                    26.944675424172093 
_cell_length_c                    25.309024199355488 
_cell_angle_alpha                 89.69597491073434 
_cell_angle_beta                  112.72723842555739 
_cell_angle_gamma                 89.95630842341566 
loop_ 
_atom_site_label 
_atom_site_type_symbol 
_atom_site_fract_x 
_atom_site_fract_y 
_atom_site_fract_z 
_atom_site_charge 
C1          C  0.04191074  0.82199363  0.23297333     0.87100
C2          C  0.04785125  0.77500380  0.20235457    -0.53100
C3          C  0.06871601  0.78364950  0.16646627     0.10000
C4          C  0.08064166  0.83810289  0.16387715     0.21000
C5          C  0.08687066  0.84292243  0.26261054    -0.53900
C6          C  0.10720884  0.85104236  0.22624843     0.10100
C7          C  0.01935321  0.85961278  0.18468093    -0.53400
C8          C  0.03954056  0.86767432  0.14835368     0.10700
H9          H  0.03727347  0.73858369  0.20950644     0.15200
H10         H  0.09730647  0.84477400  0.13456679     0.00900
H11         H  0.10125600  0.84948921  0.30836123     0.15500
H12         H  0.99074306  0.87942052  0.18056864     0.15300
C13         C  0.12834474  0.62148503  0.05216934     0.87100
C14         C  0.08328572  0.60104985  0.02203981    -0.53100
C15         C  0.06259648  0.59285835  0.05792948     0.10000
C16         C  0.08918283  0.60505432  0.12064940     0.21000
C17         C  0.12266669  0.66823839  0.08330146    -0.53900
C18         C  0.10162079  0.65945700  0.11892156     0.10100
C19         C  0.15059067  0.58335417  0.10006514    -0.53400
C20         C  0.13023702  0.57514557  0.13618029     0.10700
H21         H  0.06925783  0.59651100  0.47843981     0.15000
H22         H  0.07232027  0.59830153  0.14969548     0.00900
H23         H  0.13359916  0.70463046  0.07671737     0.15500
H24         H  0.17924427  0.56358804  0.10429051     0.15300
C25         C  0.29094519  0.82675375  0.29511796     0.87100
C26         C  0.28957531  0.77833545  0.32713491    -0.53100
C27         C  0.27149968  0.78417869  0.36665697     0.10000
C28         C  0.25752231  0.83764694  0.37094903     0.21000
C29         C  0.24467147  0.84471674  0.27008700    -0.53900
C30         C  0.22700092  0.84989313  0.30993697     0.10100
C31         C  0.31413293  0.86444007  0.34213316    -0.53400
C32         C  0.29638479  0.87051623  0.38155602     0.10700
H33         H  0.30052451  0.74290175  0.31787644     0.15200
H34         H  0.24323310  0.84214078  0.40329365     0.00900
H35         H  0.22712672  0.84921426  0.22439738     0.15500
H36         H  0.00843782  0.87976734  0.35433010     0.15300
C37         C  0.21476181  0.61706081  0.47831986     0.87100
C38         C  0.25991919  0.59649848  0.50730083    -0.53100
C39         C  0.28008630  0.58935943  0.47053604     0.10000
C40         C  0.25279640  0.60273809  0.40811641     0.21000
C41         C  0.21984000  0.66459363  0.44753943    -0.53900
C42         C  0.24029725  0.65705772  0.41106590     0.10100
C43         C  0.19231507  0.57981966  0.43028055    -0.53400
C44         C  0.21204956  0.57253567  0.39338009     0.10700
H45         H  0.27200732  0.59247017  0.05583488     0.15200
H46         H  0.26903293  0.59684017  0.37820509     0.00900
H47         H  0.20897491  0.70071971  0.45499630     0.15500
H48         H  0.16407640  0.55953458  0.42665986     0.15300
C49         C  0.05468871  0.11676378  0.24140762     0.87100
C50         C  0.10127716  0.10068879  0.26923947    -0.53100
C51         C  0.12085042  0.09575322  0.23136095     0.10000
C52         C  0.09075602  0.10516385  0.16867857     0.21000
C53         C  0.05538155  0.16434992  0.20785648    -0.53900
C54         C  0.07484729  0.15811150  0.17000243     0.10100
C55         C  0.03352052  0.07761977  0.19572562    -0.53400
C56         C  0.05157486  0.07215315  0.15686429     0.10700
H57         H  0.11735664  0.09711829  0.31528026     0.15200
H58         H  0.10600158  0.10032246  0.13745627     0.00900
H59         H  0.04235855  0.19939426  0.21440356     0.15500
H60         H  0.00589159  0.05666738  0.19356218     0.15300
C61         C  0.12126239  0.32488286  0.04772332     0.87100
C62         C  0.11723384  0.27751816  0.07933649    -0.53100
C63         C  0.09684841  0.28502546  0.11590334     0.10000
C64         C  0.08327521  0.33898737  0.11780978     0.21000
C65         C  0.07605561  0.34448210  0.01856656    -0.53900
C66         C  0.05580212  0.35104834  0.05502623     0.10100
C67         C  0.14344095  0.36263262  0.09515868    -0.53400
C68         C  0.12390223  0.36948500  0.13236229     0.10700
H69         H  0.12915557  0.24177538  0.07274216     0.15200
H70         H  0.06683819  0.34482099  0.14749407     0.00900
H71         H  0.06382619  0.34541158  0.48103869     0.15500
H72         H  0.17195768  0.38241212  0.09890290     0.15300
C73         C  0.30949673  0.13291872  0.31611945     0.87100
C74         C  0.26315808  0.11596600  0.28464345    -0.53100
C75         C  0.24161703  0.11056527  0.32018700     0.10000
C76         C  0.26869008  0.12227041  0.38316346     0.21000
C77         C  0.30689647  0.18038612  0.34650905    -0.53900
C78         C  0.28516361  0.17539241  0.38090605     0.10100
C79         C  0.32953188  0.09482092  0.36425307    -0.53400
C80         C  0.30773060  0.08792592  0.39857250     0.10700
H81         H  0.24906334  0.11021589  0.23873938     0.15200
H82         H  0.25158062  0.11835324  0.41232407     0.00900
H83         H  0.31935160  0.21575519  0.33933026     0.15500
H84         H  0.35751852  0.07333722  0.36894845     0.15300
C85         C  0.20829300  0.33039361  0.48452169     0.87100
C86         C  0.20636008  0.27935016  0.45790729    -0.53100
C87         C  0.22541418  0.27756884  0.41997443     0.10000
C88         C  0.24339043  0.32791877  0.41019765     0.21000
C89         C  0.25532944  0.34423605  0.50956272    -0.53900
C90         C  0.27402007  0.34271919  0.47059378     0.10100
C91         C  0.18797766  0.36612606  0.43399897    -0.53400
C92         C  0.20622668  0.36509528  0.39467149     0.10700
H93         H  0.19405179  0.24660122  0.47137424     0.15200
H94         H  0.25823911  0.32641348  0.37822411     0.00900
H95         H  0.26525579  0.34606144  0.05536586     0.15500
H96         H  0.16212920  0.39097190  0.43052820     0.15300
O97         O  0.11587525  0.41964644  0.20469651    -0.72300
O98         O  0.15821115  0.52191086  0.32832156    -0.73300
O99         O  0.11938279  0.52427871  0.20639219    -0.61900
O100        O  0.15518509  0.41779063  0.32716356    -0.70300
O101        O  0.21848981  0.41376999  0.32281180    -0.69900
O102        O  0.18240254  0.52114739  0.20101559    -0.61200
O103        O  0.22147020  0.51981673  0.32360001    -0.73700
O104        O  0.17904839  0.41718863  0.19967843    -0.72400
Cu105      Cu  0.13502318  0.47093286  0.26680449     1.04600
Cu106      Cu  0.20264084  0.46780876  0.26170307     1.04300
C107        C  0.14044052  0.40345876  0.18148390     0.93900
C108        C  0.19649798  0.53664500  0.34591941     0.93000
C109        C  0.14487508  0.53873738  0.18371943     0.85100
C110        C  0.19261549  0.39986141  0.34521650     0.91400
O111        O  0.05014753  0.91869680  0.07800639    -0.72300
O112        O  0.02019564  0.01833104  0.45791058    -0.73300
O113        O  0.05625378  0.02295795  0.08174307    -0.61900
O114        O  0.01490893  0.91437957  0.45588867    -0.70300
O115        O  0.28598132  0.92377406  0.44980466    -0.69900
O116        O  0.32329458  0.01682778  0.07038826    -0.61200
O117        O  0.29129478  0.03001663  0.45883229    -0.73700
O118        O  0.31912996  0.91350004  0.06643827    -0.72400
Cu119      Cu  0.03396568  0.97308608  0.01888400     1.04600
Cu120      Cu  0.29853855  0.96748527  0.00800940     1.04300
C121        C  0.02499799  0.90441037  0.10134333     0.93900
C122        C  0.31884281  0.04695373  0.44108086     0.93000
C123        C  0.03310398  0.03923164  0.10691632     0.85100
C124        C  0.31150980  0.90720400  0.42829603     0.91400
C125        C  0.27470700  0.22005254  0.40548977    -0.15800
C126        C  0.23538054  0.22945835  0.40105524    -0.31000
H127        H  0.29865125  0.24877303  0.42063426     0.13200
H128        H  0.21107632  0.20113007  0.38613297     0.13800
C129        C  0.32018129  0.34673346  0.48489455    -0.15800
C130        C  0.00972634  0.35844613  0.03590688    -0.31000
H131        H  0.33048491  0.33846979  0.45045916     0.13200
H132        H  0.99811286  0.37102573  0.06773683     0.13800
C133        C  0.14176390  0.31739062  0.00515881    -0.15800
C134        C  0.18884702  0.33064113  0.52821568    -0.31000
H135        H  0.12196131  0.31898116  0.95974633     0.13200
H136        H  0.20361294  0.31618343  0.06678123     0.13800
C137        C  0.19576330  0.09931233  0.30254012    -0.15800
C138        C  0.16778315  0.09469969  0.24798910    -0.31000
H139        H  0.18463324  0.09874729  0.33712580     0.13200
H140        H  0.17897666  0.09560227  0.21337600     0.13800
C141        C  0.03379656  0.12222907  0.28398949    -0.15800
C142        C  0.33397029  0.13975066  0.27869024    -0.31000
H143        H  0.05331157  0.11850209  0.32928166     0.13200
H144        H  0.34536119  0.17631870  0.27384218     0.13800
C145        C  0.08360164  0.19774751  0.13543949    -0.15800
C146        C  0.08629513  0.24588844  0.14952091    -0.31000
H147        H  0.09033547  0.18601333  0.09890542     0.13200
H148        H  0.07951397  0.25770766  0.18600918     0.13800
C149        C  0.26075568  0.74360014  0.39871619    -0.15800
C150        C  0.25288009  0.69670877  0.37969002    -0.31000
H151        H  0.25638998  0.75392203  0.43746814     0.13200
H152        H  0.25732874  0.68612145  0.34107377     0.13800
C153        C  0.32580047  0.57876000  0.48786771    -0.15800
C154        C  0.01708883  0.58077102  0.03962349    -0.31000
H155        H  0.33727303  0.57860642  0.45357504     0.13200
H156        H  0.00626558  0.57167246  0.07340212     0.13800
C157        C  0.14954535  0.63037902  0.01000182    -0.15800
C158        C  0.19399579  0.62510031  0.52105516    -0.31000
H159        H  0.12950021  0.63192939  0.96468783     0.13200
H160        H  0.21185310  0.62488350  0.07028726     0.13800
C161        C  0.18113911  0.85516563  0.29660252    -0.15800
C162        C  0.15241201  0.86371513  0.24359664    -0.31000
H163        H  0.17085744  0.84539439  0.33077924     0.13200
H164        H  0.16262796  0.87341434  0.20937510     0.13800
C165        C  0.30912512  0.82258211  0.24917862    -0.15800
C166        C  0.02066681  0.81350226  0.27521125    -0.31000
H167        H  0.28839361  0.83243585  0.20587455     0.13200
H168        H  0.04061726  0.81251360  0.32057493     0.13800
C169        C  0.08230948  0.74547273  0.13493920    -0.15800
C170        C  0.08830976  0.69757445  0.15082219    -0.31000
H171        H  0.08937132  0.75818902  0.09886047     0.13200
H172        H  0.08122593  0.68481805  0.18686631     0.13800
C173        C  0.03511836  0.82170775  0.73343304     0.87100
C174        C  0.03378081  0.77111890  0.70510095    -0.53100
C175        C  0.05381787  0.77045808  0.66772068     0.10000
C176        C  0.07114190  0.82160367  0.65959319     0.21000
C177        C  0.08242012  0.83548825  0.75918513    -0.53900
C178        C  0.10110972  0.83560911  0.72003134     0.10100
C179        C  0.01545185  0.85856641  0.68366755    -0.53400
C180        C  0.03441772  0.85883636  0.64511824     0.10700
H181        H  0.02122022  0.73789778  0.71718222     0.15200
H182        H  0.08611771  0.82193662  0.62775895     0.00900
H183        H  0.09929461  0.84291941  0.80439218     0.15500
H184        H  0.99017459  0.88407737  0.68082799     0.15300
C185        C  0.13182716  0.62005238  0.55054133     0.87100
C186        C  0.08514726  0.60426900  0.52373144    -0.53100
C187        C  0.06554674  0.60288264  0.56168436     0.10000
C188        C  0.09433469  0.61758200  0.62265580     0.21000
C189        C  0.13122473  0.67027074  0.57836460    -0.53900
C190        C  0.11053665  0.66959122  0.61493687     0.10100
C191        C  0.15216095  0.58369294  0.60067591    -0.53400
C192        C  0.13246600  0.58195331  0.63848535     0.10700
H193        H  0.06910105  0.59492113  0.97620766     0.15000
H194        H  0.07858607  0.61639623  0.65359792     0.00900
H195        H  0.14333696  0.70411506  0.56686164     0.15500
H196        H  0.17867998  0.55986075  0.60446393     0.15300
C197        C  0.28602213  0.82293088  0.78891718     0.87100
C198        C  0.28347907  0.77531799  0.82154199    -0.53100
C199        C  0.26430976  0.78277482  0.85963004     0.10000
C200        C  0.24999622  0.83619903  0.86148394     0.21000
C201        C  0.24006628  0.84148737  0.76146210    -0.53900
C202        C  0.22103559  0.84762002  0.79958274     0.10100
C203        C  0.30848842  0.86100559  0.83575803    -0.53400
C204        C  0.28946347  0.86776487  0.87367342     0.10700
H205        H  0.29528839  0.73957859  0.81466787     0.15200
H206        H  0.23452705  0.84163945  0.89238035     0.00900
H207        H  0.22393421  0.84746033  0.71568367     0.15500
H208        H  0.00156568  0.88898239  0.85632085     0.15300
C209        C  0.21195149  0.62015968  0.98182373     0.87100
C210        C  0.25699491  0.59892647  0.01008490    -0.53100
C211        C  0.27652819  0.59125413  0.97272734     0.10000
C212        C  0.24892480  0.60476222  0.91071722     0.21000
C213        C  0.21708573  0.66743816  0.95058115    -0.53900
C214        C  0.23685276  0.65895181  0.91340001     0.10100
C215        C  0.18858706  0.58321669  0.93385961    -0.53400
C216        C  0.20790926  0.57570289  0.89649989     0.10700
H217        H  0.27457021  0.59034031  0.55314985     0.15200
H218        H  0.26473150  0.59843715  0.88036746     0.00900
H219        H  0.20633875  0.70375184  0.95763280     0.15500
H220        H  0.15980919  0.56410804  0.93026123     0.15300
C221        C  0.03818315  0.12213946  0.72227760     0.87100
C222        C  0.08028887  0.09970017  0.76329711    -0.53100
C223        C  0.10836961  0.08915849  0.73833375     0.10000
C224        C  0.08979383  0.09948686  0.67266723     0.21000
C225        C  0.05084346  0.16653028  0.69470165    -0.53900
C226        C  0.07822572  0.15520215  0.66896331     0.10100
C227        C  0.02001921  0.08487203  0.67406710    -0.53400
C228        C  0.04662608  0.07192320  0.64815227     0.10700
H229        H  0.08864603  0.09725158  0.80924079     0.15200
H230        H  0.11085081  0.08994152  0.65026019     0.00900
H231        H  0.03852735  0.20357492  0.69510234     0.15500
H232        H  0.98836834  0.06977747  0.66151935     0.15300
C233        C  0.12667812  0.32769228  0.55561877     0.87100
C234        C  0.12741236  0.27914572  0.58816801    -0.53100
C235        C  0.10736430  0.28293124  0.62539750     0.10000
C236        C  0.08936114  0.33499313  0.62717542     0.21000
C237        C  0.07986025  0.34165297  0.52711172    -0.53900
C238        C  0.06011512  0.34547727  0.56464428     0.10100
C239        C  0.14584399  0.36719767  0.60173246    -0.53400
C240        C  0.12666543  0.37071016  0.63953173     0.10700
H241        H  0.14144084  0.24499459  0.58108093     0.15200
H242        H  0.07333796  0.33806374  0.65772036     0.00900
H243        H  0.06111156  0.35072956  0.97269102     0.15500
H244        H  0.17168243  0.39136272  0.60369096     0.15300
C245        C  0.30171987  0.12912074  0.81054836     0.87100
C246        C  0.25897407  0.10850266  0.76848997    -0.53100
C247        C  0.23110344  0.09648311  0.79330351     0.10000
C248        C  0.24972750  0.10455231  0.85911174     0.21000
C249        C  0.28985092  0.17237255  0.84024725    -0.53900
C250        C  0.26200011  0.15989855  0.86505707     0.10100
C251        C  0.31880187  0.08928978  0.85623357    -0.53400
C252        C  0.29254314  0.07626505  0.88238958     0.10700
H253        H  0.24988195  0.10612064  0.72257971     0.15200
H254        H  0.22847702  0.09442998  0.88109840     0.00900
H255        H  0.30270568  0.20934434  0.84155491     0.15500
H256        H  0.34995733  0.07279960  0.86736276     0.15300
C257        C  0.20480855  0.32370300  0.97923340     0.87100
C258        C  0.20781927  0.27650783  0.94711639    -0.53100
C259        C  0.22874952  0.28372559  0.91126344     0.10000
C260        C  0.24386698  0.33723929  0.91041394     0.21000
C261        C  0.25063449  0.34113756  0.00936854    -0.53900
C262        C  0.27147975  0.34755499  0.97351133     0.10100
C263        C  0.18393185  0.36300824  0.93230392    -0.53400
C264        C  0.20412846  0.36972437  0.89579584     0.10700
H265        H  0.19550032  0.24088560  0.95346960     0.15200
H266        H  0.26075235  0.34275043  0.88117219     0.00900
H267        H  0.27202428  0.35244652  0.55457695     0.15500
H268        H  0.15600162  0.38408786  0.92865384     0.15300
O269        O  0.11468256  0.42362917  0.70691722    -0.72300
O270        O  0.15370365  0.52723122  0.82917891    -0.73300
O271        O  0.11757268  0.53019338  0.70627755    -0.61900
O272        O  0.15207853  0.42320025  0.82943895    -0.70300
O273        O  0.21572792  0.42044536  0.82601590    -0.69900
O274        O  0.18177807  0.52669995  0.70486787    -0.61200
O275        O  0.21769346  0.52488423  0.82664243    -0.73700
O276        O  0.17871008  0.42247729  0.70447517    -0.72400
Cu277      Cu  0.13211788  0.47616894  0.76783598     1.04600
Cu278      Cu  0.20060427  0.47356520  0.76537490     1.04300
C279        C  0.14061223  0.40703026  0.68617647     0.93900
C280        C  0.19218881  0.54121370  0.84824993     0.93000
C281        C  0.14449667  0.54497600  0.68591675     0.85100
C282        C  0.18980984  0.40592916  0.84790694     0.91400
O283        O  0.05110830  0.90985270  0.57867254    -0.72300
O284        O  0.01263129  0.02745198  0.96079960    -0.73300
O285        O  0.05856992  0.01653577  0.58125524    -0.61900
O286        O  0.00866110  0.92347593  0.95642938    -0.70300
O287        O  0.27993305  0.91738551  0.94504405    -0.69900
O288        O  0.32864324  0.01960143  0.57955606    -0.61200
O289        O  0.28054337  0.02199298  0.94935262    -0.73700
O290        O  0.32198609  0.91627741  0.57075793    -0.72400
Cu291      Cu  0.03857504  0.96454945  0.51854331     1.04600
Cu292      Cu  0.30473852  0.97255866  0.51461197     1.04300
C293        C  0.02368625  0.89635206  0.59872082     0.93900
C294        C  0.30625174  0.03838047  0.92829167     0.93000
C295        C  0.03274549  0.03486348  0.60120750     0.85100
C296        C  0.30488856  0.90249997  0.92173334     0.91400
C297        C  0.24429290  0.19619372  0.89379597    -0.15800
C298        C  0.24050423  0.24459473  0.87931738    -0.31000
H299        H  0.23458596  0.18262245  0.92723943     0.13200
H300        H  0.24956985  0.25731547  0.84495632     0.13800
C301        C  0.31782473  0.35432870  0.99262057    -0.15800
C302        C  0.01391740  0.35025636  0.54734071    -0.31000
H303        H  0.32947724  0.36053579  0.95901402     0.13200
H304        H  0.00165094  0.33857525  0.57897402     0.13800
C305        C  0.14725275  0.32389392  0.51309410    -0.15800
C306        C  0.18384226  0.31634924  0.02132912    -0.31000
H307        H  0.12732767  0.31843899  0.46817867     0.13200
H308        H  0.20919114  0.33650042  0.57280964     0.13800
C309        C  0.18558435  0.08749277  0.75601899    -0.15800
C310        C  0.15435377  0.08269880  0.77552929    -0.31000
H311        H  0.17735334  0.09032950  0.71027841     0.13200
H312        H  0.16247148  0.07989919  0.82126877     0.13800
C313        C  0.00824987  0.13594843  0.75068238    -0.15800
C314        C  0.33581885  0.14153144  0.78877085    -0.31000
H315        H  0.00500737  0.17481058  0.75868239     0.13200
H316        H  0.36702224  0.14850694  0.82115703     0.13800
C317        C  0.09559028  0.19336456  0.64139775    -0.15800
C318        C  0.09891317  0.24126787  0.65779534    -0.31000
H319        H  0.10416880  0.18199347  0.60624768     0.13200
H320        H  0.09107800  0.25175281  0.69384264     0.13800
C321        C  0.25481635  0.74436691  0.89484451    -0.15800
C322        C  0.24794108  0.69688338  0.87906383    -0.31000
H323        H  0.25064461  0.75665153  0.93310865     0.13200
H324        H  0.25210929  0.68454226  0.84080527     0.13800
C325        C  0.32196420  0.57978284  0.98890128    -0.15800
C326        C  0.01990870  0.59463093  0.54673428    -0.31000
H327        H  0.33272750  0.57788772  0.95400342     0.13200
H328        H  0.00876312  0.60262831  0.58040850     0.13800
C329        C  0.15201941  0.62121994  0.50673693    -0.15800
C330        C  0.19170992  0.62779796  0.02513236    -0.31000
H331        H  0.13153309  0.61634353  0.46205001     0.13200
H332        H  0.21430078  0.62943251  0.56598510     0.13800
C333        C  0.17521895  0.85525495  0.78410277    -0.15800
C334        C  0.14660304  0.84228200  0.73273978    -0.31000
H335        H  0.16517763  0.86507095  0.81837978     0.13200
H336        H  0.15690941  0.83156265  0.69897788     0.13800
C337        C  0.30575982  0.81743403  0.74492081    -0.15800
C338        C  0.01503906  0.82191032  0.77756504    -0.31000
H339        H  0.28591265  0.82586309  0.70077107     0.13200
H340        H  0.03564627  0.82372639  0.82260807     0.13800
C341        C  0.06410360  0.72287035  0.64630415    -0.15800
C342        C  0.09987285  0.71662452  0.63683667    -0.31000
H343        H  0.04276629  0.69186433  0.64100026     0.13200
H344        H  0.12123188  0.74762628  0.64235802     0.13800
C345        C  0.37140585  0.81847686  0.21819641     0.87100
C346        C  0.38042710  0.77018630  0.19244445    -0.53100
C347        C  0.40211994  0.77756343  0.15735850     0.10000
C348        C  0.41242342  0.83198524  0.15118082     0.21000
C349        C  0.41520870  0.84230989  0.24786831    -0.53900
C350        C  0.43697208  0.84855751  0.21286214     0.10100
C351        C  0.34868173  0.85274988  0.16628756    -0.53400
C352        C  0.37028010  0.85980099  0.13145362     0.10700
H353        H  0.37085738  0.73387439  0.20170570     0.15200
H354        H  0.42999416  0.83754474  0.12278505     0.00900
H355        H  0.42812705  0.85111118  0.29313034     0.15500
H356        H  0.31956213  0.87256702  0.15912139     0.15300
C357        C  0.46176982  0.61140187  0.05018238     0.87100
C358        C  0.41578670  0.59344108  0.02185895    -0.53100
C359        C  0.39610811  0.58710150  0.05934884     0.10000
C360        C  0.42444436  0.59864985  0.12151175     0.21000
C361        C  0.45880414  0.65899702  0.08196327    -0.53900
C362        C  0.43858952  0.65210671  0.11893372     0.10100
C363        C  0.48346109  0.57281825  0.09762294    -0.53400
C364        C  0.46403731  0.56659365  0.13518294     0.10700
H365        H  0.40504046  0.58673802  0.47798649     0.15000
H366        H  0.40847356  0.59345041  0.15190204     0.00900
H367        H  0.47028418  0.69472698  0.07428584     0.15500
H368        H  0.51118222  0.55159880  0.10067349     0.15300
C369        C  0.62113587  0.81939547  0.29513512     0.87100
C370        C  0.61692541  0.77110720  0.32530018    -0.53100
C371        C  0.59645665  0.77749443  0.36198000     0.10000
C372        C  0.58295909  0.83111495  0.36552809     0.21000
C373        C  0.57560911  0.83908797  0.26643262    -0.53900
C374        C  0.55546851  0.84494593  0.30345411     0.10100
C375        C  0.64299602  0.85622539  0.34366466    -0.53400
C376        C  0.62321237  0.86187369  0.38070735     0.10700
H377        H  0.62867148  0.73555918  0.31774466     0.15200
H378        H  0.56673298  0.83600483  0.39562249     0.00900
H379        H  0.56060448  0.84517677  0.22060126     0.15500
H380        H  0.34131881  0.88557545  0.34298022     0.15300
C381        C  0.54774323  0.60887045  0.48024735     0.87100
C382        C  0.59370379  0.59076513  0.50806004    -0.53100
C383        C  0.61320658  0.58501242  0.47039976     0.10000
C384        C  0.58453893  0.59712684  0.40823850     0.21000
C385        C  0.55024457  0.65684641  0.44838107    -0.53900
C386        C  0.57000870  0.65048586  0.41085898     0.10100
C387        C  0.52584302  0.57091759  0.43280795    -0.53400
C388        C  0.54499741  0.56509531  0.39481470     0.10700
H389        H  0.60637835  0.58879238  0.05128600     0.15200
H390        H  0.60031843  0.59233779  0.37760943     0.00900
H391        H  0.53820852  0.69226156  0.45578277     0.15500
H392        H  0.49796788  0.55015892  0.42991375     0.15300
C393        C  0.37325244  0.09997582  0.22424422     0.87100
C394        C  0.41560309  0.07521341  0.25909880    -0.53100
C395        C  0.44186984  0.07024975  0.23058417     0.10000
C396        C  0.42128962  0.08782038  0.16712270     0.21000
C397        C  0.38477206  0.14920661  0.20206378    -0.53900
C398        C  0.41022875  0.14261866  0.17187312     0.10100
C399        C  0.35332437  0.06857990  0.17147825    -0.53400
C400        C  0.37779322  0.06168383  0.14116955     0.10700
H401        H  0.42558523  0.06714521  0.30458442     0.15200
H402        H  0.44080822  0.08200621  0.14152786     0.00900
H403        H  0.37292067  0.18515687  0.20780093     0.15500
H404        H  0.32207876  0.05231981  0.15949715     0.15300
C405        C  0.45594866  0.31324284  0.05227684     0.87100
C406        C  0.45443975  0.26559717  0.08514973    -0.53100
C407        C  0.43514513  0.27183871  0.12318413     0.10000
C408        C  0.42046701  0.32553478  0.12545876     0.21000
C409        C  0.40993199  0.33079525  0.02498464    -0.53900
C410        C  0.39105174  0.33719845  0.06318128     0.10100
C411        C  0.47806949  0.35188258  0.09857637    -0.53400
C412        C  0.45986928  0.35802416  0.13731284     0.10700
H413        H  0.46647153  0.23036242  0.07732345     0.15200
H414        H  0.40519593  0.33074904  0.15659240     0.00900
H415        H  0.39922865  0.34530175  0.47220269     0.15500
H416        H  0.50526529  0.37330956  0.10001965     0.15300
C417        C  0.63231176  0.11672949  0.29577077     0.87100
C418        C  0.59001813  0.09534347  0.25575579    -0.53100
C419        C  0.56283189  0.08388939  0.28138290     0.10000
C420        C  0.58163658  0.09369731  0.34692213     0.21000
C421        C  0.62052100  0.16087926  0.32463053    -0.53900
C422        C  0.59370630  0.14901209  0.35142238     0.10100
C423        C  0.65047106  0.07753693  0.34332951    -0.53400
C424        C  0.62461704  0.06602256  0.37104720     0.10700
H425        H  0.58107102  0.09292290  0.20968154     0.15200
H426        H  0.56045196  0.08437560  0.36930759     0.00900
H427        H  0.63307183  0.19776333  0.32431891     0.15500
H428        H  0.68102164  0.05986062  0.35476304     0.15300
C429        C  0.54325404  0.31229313  0.47627728     0.87100
C430        C  0.54590885  0.26517355  0.44348208    -0.53100
C431        C  0.56665894  0.27257309  0.40732240     0.10000
C432        C  0.58199660  0.32600454  0.40704248     0.21000
C433        C  0.58925736  0.32936250  0.50632191    -0.53900
C434        C  0.60964560  0.33650414  0.46997369     0.10100
C435        C  0.52269185  0.35200499  0.42980288    -0.53400
C436        C  0.54266044  0.35856194  0.39316735     0.10700
H437        H  0.53315089  0.22965870  0.44921337     0.15200
H438        H  0.59860823  0.33182806  0.37751533     0.00900
H439        H  0.59969111  0.32916123  0.05131135     0.15500
H440        H  0.49527680  0.37389445  0.42659322     0.15300
O441        O  0.45109187  0.41078144  0.20704319    -0.72300
O442        O  0.49141750  0.51535345  0.32807879    -0.73300
O443        O  0.45307727  0.51595017  0.20555142    -0.61900
O444        O  0.49045373  0.41174198  0.32862200    -0.70300
O445        O  0.55341781  0.40923903  0.32289651    -0.69900
O446        O  0.51642694  0.51422594  0.20101945    -0.61200
O447        O  0.55482430  0.51428710  0.32374829    -0.73700
O448        O  0.51387486  0.41002814  0.20077011    -0.72400
Cu449      Cu  0.46931316  0.46359222  0.26737174     1.04600
Cu450      Cu  0.53690189  0.46193284  0.26196635     1.04300
C451        C  0.47580047  0.39439671  0.18421163     0.93900
C452        C  0.52965947  0.53018942  0.34632400     0.93000
C453        C  0.47862998  0.53077740  0.18307409     0.85100
C454        C  0.52811021  0.39469987  0.34577535     0.91400
O455        O  0.38230549  0.91064983  0.06147056    -0.72300
O456        O  0.35570661  0.02734861  0.45800091    -0.73300
O457        O  0.38699655  0.01512575  0.06699129    -0.61900
O458        O  0.34985525  0.92200828  0.44703430    -0.70300
O459        O  0.61271963  0.91373260  0.44997731    -0.69900
O460        O  0.65487557  0.02671027  0.07709810    -0.61200
O461        O  0.61312854  0.01827476  0.44376391    -0.73700
O462        O  0.65209139  0.92254355  0.07827561    -0.72400
Cu463      Cu  0.36630610  0.96618302  0.00299490     1.04600
Cu464      Cu  0.63042222  0.97431605  0.01619842     1.04300
C465        C  0.35650148  0.89580909  0.08360459     0.93900
C466        C  0.63873048  0.03159886  0.42087933     0.93000
C467        C  0.36208245  0.03033961  0.08986991     0.85100
C468        C  0.63818243  0.89695087  0.42846194     0.91400
C469        C  0.57774510  0.18512523  0.38274130    -0.15800
C470        C  0.57701986  0.23425703  0.37286862    -0.31000
H471        H  0.56688815  0.17062979  0.41473583     0.13200
H472        H  0.58714191  0.24812979  0.33993477     0.13800
C473        C  0.65526369  0.34684738  0.48757109    -0.15800
C474        C  0.34512756  0.34586420  0.04690114    -0.31000
H475        H  0.66671028  0.34497713  0.45337810     0.13200
H476        H  0.33351366  0.33979720  0.08057361     0.13800
C477        C  0.47516051  0.30677259  0.00810638    -0.15800
C478        C  0.52190811  0.30533639  0.51820589    -0.31000
H479        H  0.45443187  0.30624899  0.96301728     0.13200
H480        H  0.53779297  0.30960880  0.06741090     0.13800
C481        C  0.51751274  0.07556544  0.24457673    -0.15800
C482        C  0.48799714  0.06330002  0.26472694    -0.31000
H483        H  0.50791953  0.08449625  0.19950820     0.13200
H484        H  0.49771442  0.05377496  0.30971423     0.13800
C485        C  0.34480778  0.09998129  0.25648336    -0.15800
C486        C  0.65893384  0.13070807  0.26224563    -0.31000
H487        H  0.33433233  0.06367292  0.26472047     0.13200
H488        H  0.64247954  0.14730529  0.22015920     0.13800
C489        C  0.42516488  0.18278113  0.14364741    -0.15800
C490        C  0.42444876  0.23135549  0.15562971    -0.31000
H491        H  0.43666848  0.17118898  0.11134358     0.13200
H492        H  0.41320206  0.24272331  0.18829079     0.13800
C493        C  0.58559900  0.73773774  0.39455908    -0.15800
C494        C  0.58019146  0.69030766  0.37768170    -0.31000
H495        H  0.58022499  0.74871905  0.43238411     0.13200
H496        H  0.58560964  0.67933643  0.33988608     0.13800
C497        C  0.65941351  0.57942946  0.48708432    -0.15800
C498        C  0.35013211  0.57995142  0.04328421    -0.31000
H499        H  0.67102654  0.58697910  0.45368177     0.13200
H500        H  0.33933380  0.58161180  0.07815101     0.13800
C501        C  0.48205973  0.61810539  0.00665107    -0.15800
C502        C  0.52795887  0.61470801  0.52429415    -0.31000
H503        H  0.46160260  0.61847531  0.96146306     0.13200
H504        H  0.54465149  0.61424414  0.06621424     0.13800
C505        C  0.50957283  0.85371670  0.28655436    -0.15800
C506        C  0.48254143  0.86016515  0.23209492    -0.31000
H507        H  0.49753227  0.84756952  0.31979321     0.13200
H508        H  0.49445549  0.86599039  0.19868718     0.13800
C509        C  0.64256754  0.81364864  0.25295737    -0.15800
C510        C  0.34977609  0.81065597  0.26038775    -0.31000
H511        H  0.62291395  0.81464569  0.20748162     0.13200
H512        H  0.36939808  0.79799503  0.30333467     0.13800
C513        C  0.41738599  0.73826782  0.12919167    -0.15800
C514        C  0.42580768  0.69174500  0.14944927    -0.31000
H515        H  0.42312833  0.74893147  0.09141419     0.13200
H516        H  0.41991880  0.68098795  0.18709520     0.13800
C517        C  0.37008373  0.81595856  0.71885948     0.87100
C518        C  0.38049232  0.76853950  0.69307085    -0.53100
C519        C  0.40355789  0.77714484  0.65999429     0.10000
C520        C  0.41362492  0.83210567  0.65568727     0.21000
C521        C  0.41329358  0.84023883  0.75109406    -0.53900
C522        C  0.43622024  0.84819487  0.71804673     0.10100
C523        C  0.34822249  0.85096649  0.66729704    -0.53400
C524        C  0.37113565  0.85943221  0.63446290     0.10700
H525        H  0.37065472  0.73188429  0.70078077     0.15200
H526        H  0.43240031  0.83881788  0.62906353     0.00900
H527        H  0.42484459  0.84900019  0.79635950     0.15500
H528        H  0.31886330  0.87052195  0.65938539     0.15300
C529        C  0.46536005  0.61117113  0.55308516     0.87100
C530        C  0.41981437  0.59212977  0.52388197    -0.53100
C531        C  0.39937415  0.58557176  0.56038160     0.10000
C532        C  0.42680092  0.59774879  0.62282426     0.21000
C533        C  0.46103461  0.65881879  0.58390991    -0.53900
C534        C  0.44023540  0.65165311  0.62012630     0.10100
C535        C  0.48712218  0.57304451  0.60122497    -0.53400
C536        C  0.46705166  0.56628419  0.63794461     0.10700
H537        H  0.40020569  0.58871624  0.97594890     0.15000
H538        H  0.41021866  0.59223104  0.65243324     0.00900
H539        H  0.47216325  0.69473369  0.57616497     0.15500
H540        H  0.51508051  0.55201534  0.60496768     0.15300
C541        C  0.61896667  0.82609742  0.79863074     0.87100
C542        C  0.61579001  0.77685588  0.82809711    -0.53100
C543        C  0.59620988  0.78170873  0.86613464     0.10000
C544        C  0.58271363  0.83528505  0.87170788     0.21000
C545        C  0.57323372  0.84522717  0.77221424    -0.53900
C546        C  0.55397779  0.84952086  0.81030606     0.10100
C547        C  0.64156781  0.86214012  0.84768010    -0.53400
C548        C  0.62247439  0.86736840  0.88584532     0.10700
H549        H  0.62681096  0.74169129  0.81827933     0.15200
H550        H  0.56716508  0.83921175  0.90271123     0.00900
H551        H  0.55704751  0.85093697  0.72646065     0.15500
H552        H  0.33659817  0.88108673  0.83827879     0.15300
C553        C  0.54411262  0.61027313  0.97725098     0.87100
C554        C  0.59030371  0.59273182  0.00526658    -0.53100
C555        C  0.60979205  0.58682481  0.96755487     0.10000
C556        C  0.58097805  0.59837859  0.90534203     0.21000
C557        C  0.54628093  0.65809053  0.94491654    -0.53900
C558        C  0.56644755  0.65204077  0.90782636     0.10100
C559        C  0.52257758  0.57170071  0.93050636    -0.53400
C560        C  0.54184138  0.56534739  0.89283327     0.10700
H561        H  0.60960698  0.58624960  0.55403126     0.15200
H562        H  0.59676799  0.59344219  0.87475245     0.00900
H563        H  0.53446786  0.69351659  0.95269468     0.15500
H564        H  0.49527993  0.55017576  0.92847687     0.15300
C565        C  0.36671316  0.12275889  0.71591294     0.87100
C566        C  0.41017673  0.10727755  0.76133686    -0.53100
C567        C  0.43956567  0.09528018  0.73904727     0.10000
C568        C  0.42176910  0.09856695  0.67245069     0.21000
C569        C  0.37637182  0.16456383  0.68211412    -0.53900
C570        C  0.40589263  0.15233779  0.66031829     0.10100
C571        C  0.35327051  0.07932483  0.67481674    -0.53400
C572        C  0.38089459  0.06717936  0.65034842     0.10700
H573        H  0.41825024  0.10837739  0.80716413     0.15200
H574        H  0.44428498  0.08911832  0.65228904     0.00900
H575        H  0.36123526  0.20072418  0.67637691     0.15500
H576        H  0.32262984  0.06157995  0.66319844     0.15300
C577        C  0.46003442  0.31822585  0.54580140     0.87100
C578        C  0.45652010  0.26987796  0.57588737    -0.53100
C579        C  0.43677325  0.27606652  0.61316152     0.10000
C580        C  0.42283445  0.32948467  0.61704561     0.21000
C581        C  0.41446631  0.33778707  0.51776622    -0.53900
C582        C  0.39472494  0.34314293  0.55507695     0.10100
C583        C  0.48257043  0.35496804  0.59454447    -0.53400
C584        C  0.46307792  0.36046916  0.63216952     0.10700
H585        H  0.46807077  0.23442972  0.56768554     0.15200
H586        H  0.40677394  0.33391450  0.64740308     0.00900
H587        H  0.39372307  0.33523838  0.97905078     0.15500
H588        H  0.51106517  0.37496224  0.59862534     0.15300
C589        C  0.63299195  0.10487511  0.79477612     0.87100
C590        C  0.58808056  0.08631427  0.76120612    -0.53100
C591        C  0.56196704  0.08789971  0.79044936     0.10000
C592        C  0.58462067  0.10656378  0.85303482     0.21000
C593        C  0.62738911  0.15707830  0.81518216    -0.53900
C594        C  0.60184162  0.15848519  0.84541158     0.10100
C595        C  0.64948126  0.07369580  0.84861490    -0.53400
C596        C  0.62494436  0.07346716  0.87971898     0.10700
H597        H  0.57726296  0.07520150  0.71660277     0.15200
H598        H  0.56480267  0.10639482  0.87869843     0.00900
H599        H  0.64191874  0.19032768  0.80690712     0.15500
H600        H  0.67839629  0.05198362  0.86031084     0.15300
C601        C  0.53655783  0.30988628  0.97832387     0.87100
C602        C  0.53502061  0.26058488  0.94804084    -0.53100
C603        C  0.55507863  0.26126812  0.91084731     0.10000
C604        C  0.57368979  0.31291870  0.90594993     0.21000
C605        C  0.58349470  0.32326879  0.00564812    -0.53900
C606        C  0.60304143  0.32534360  0.96788374     0.10100
C607        C  0.51728235  0.34831501  0.93004037    -0.53400
C608        C  0.53669917  0.35031052  0.89190171     0.10700
H609        H  0.52116000  0.22719364  0.95757402     0.15200
H610        H  0.58953793  0.31460255  0.87517645     0.00900
H611        H  0.60417748  0.33377448  0.55236783     0.15500
H612        H  0.49152790  0.37295769  0.92748978     0.15300
O613        O  0.45258980  0.40938657  0.70365568    -0.72300
O614        O  0.48985280  0.51183647  0.82828111    -0.73300
O615        O  0.45450131  0.51428036  0.70610387    -0.61900
O616        O  0.48757036  0.40664193  0.82633856    -0.70300
O617        O  0.55191822  0.40358164  0.82545764    -0.69900
O618        O  0.51859675  0.51221693  0.70414095    -0.61200
O619        O  0.55407996  0.51073610  0.82672352    -0.73700
O620        O  0.51685258  0.40811222  0.70213249    -0.72400
Cu621      Cu  0.46896407  0.46050605  0.76619959     1.04600
Cu622      Cu  0.53772489  0.45853815  0.76487599     1.04300
C623        C  0.47837042  0.39396504  0.68192714     0.93900
C624        C  0.52787874  0.52769076  0.84693102     0.93000
C625        C  0.48088454  0.52945656  0.68524717     0.85100
C626        C  0.52485510  0.38823686  0.84526431     0.91400
O627        O  0.38609605  0.91251501  0.56893878    -0.72300
O628        O  0.34413296  0.02142378  0.94564425    -0.73300
O629        O  0.39335042  0.01738059  0.57979314    -0.61900
O630        O  0.34298591  0.91760361  0.93944262    -0.70300
O631        O  0.61201282  0.92044306  0.95536313    -0.69900
O632        O  0.65397237  0.02231364  0.56641987    -0.61200
O633        O  0.61205703  0.02694711  0.95327499    -0.73700
O634        O  0.65086735  0.91813865  0.57206543    -0.72400
Cu635      Cu  0.37346958  0.96968037  0.51313685     1.04600
Cu636      Cu  0.63047352  0.96827206  0.50830346     1.04300
C637        C  0.35897970  0.89731415  0.58856837     0.93900
C638        C  0.63795316  0.04067759  0.93100647     0.93000
C639        C  0.36740956  0.03293855  0.60105651     0.85100
C640        C  0.63719807  0.90378897  0.93310889     0.91400
C641        C  0.59335534  0.20670145  0.86771307    -0.15800
C642        C  0.56107530  0.21414430  0.88426557    -0.31000
H643        H  0.61478584  0.23707668  0.87040899     0.13200
H644        H  0.53975692  0.18378109  0.88200685     0.13800
C645        C  0.64882672  0.33410241  0.98466129    -0.15800
C646        C  0.34901683  0.35340328  0.53844596    -0.31000
H647        H  0.66187752  0.32213005  0.95407392     0.13200
H648        H  0.33895876  0.36061614  0.57330209     0.13800
C649        C  0.48014222  0.31194902  0.50271410    -0.15800
C650        C  0.51703487  0.30769287  0.02241789    -0.31000
H651        H  0.46018456  0.31644774  0.45765612     0.13200
H652        H  0.54167233  0.30182594  0.56350886     0.13800
C653        C  0.51571094  0.07907095  0.75853390    -0.15800
C654        C  0.48552129  0.09224358  0.77732277    -0.31000
H655        H  0.50624566  0.06515204  0.71526435     0.13200
H656        H  0.49467935  0.10530498  0.82092432     0.13800
C657        C  0.33112704  0.13591568  0.73433010    -0.15800
C658        C  0.66129708  0.09733173  0.76259954    -0.31000
H659        H  0.29975078  0.13566932  0.70081274     0.13200
H660        H  0.66596669  0.05896982  0.75312088     0.13800
C661        C  0.42272802  0.18835238  0.63054237    -0.15800
C662        C  0.42612128  0.23635632  0.64525528    -0.31000
H663        H  0.43217385  0.17510822  0.59684616     0.13200
H664        H  0.41762988  0.24822237  0.68035725     0.13800
C665        C  0.58410903  0.74027126  0.89597930    -0.15800
C666        C  0.57885116  0.69297566  0.87756753    -0.31000
H667        H  0.57726579  0.75012804  0.93299554     0.13200
H668        H  0.58591548  0.68293329  0.84077872     0.13800
C669        C  0.65601376  0.58152705  0.98412611    -0.15800
C670        C  0.35330023  0.57754627  0.54272315    -0.31000
H671        H  0.66776944  0.59066831  0.95121412     0.13200
H672        H  0.34179220  0.57747643  0.57698199     0.13800
C673        C  0.48599444  0.61838495  0.50997165    -0.15800
C674        C  0.52415776  0.61634594  0.02111334    -0.31000
H675        H  0.46563276  0.62040247  0.46478384     0.13200
H676        H  0.54841484  0.61132228  0.56928568     0.13800
C677        C  0.50774364  0.85452010  0.79363741    -0.15800
C678        C  0.48089985  0.86372729  0.73961065    -0.31000
H679        H  0.49561612  0.84287944  0.82545284     0.13200
H680        H  0.49276969  0.87520076  0.70753844     0.13800
C681        C  0.63829052  0.82341351  0.75368412    -0.15800
C682        C  0.34695181  0.80688474  0.75886954    -0.31000
H683        H  0.61828646  0.83425917  0.71038621     0.13200
H684        H  0.36589551  0.79606895  0.80281151     0.13800
C685        C  0.41989584  0.73849884  0.63197623    -0.15800
C686        C  0.42657084  0.69113416  0.65016278    -0.31000
H687        H  0.42753463  0.75019708  0.59604005     0.13200
H688        H  0.41892644  0.67957511  0.68613574     0.13800
C689        C  0.70617509  0.82364041  0.22748032     0.87100
C690        C  0.71003269  0.77676989  0.19542489    -0.53100
C691        C  0.73085459  0.78467247  0.15944444     0.10000
C692        C  0.74480889  0.83845084  0.15817883     0.21000
C693        C  0.75187841  0.84218977  0.25730755    -0.53900
C694        C  0.77232477  0.84962120  0.22092446     0.10100
C695        C  0.68459986  0.86250747  0.18044224    -0.53400
C696        C  0.70461623  0.86975269  0.14375064     0.10700
H697        H  0.69816043  0.74086869  0.20177141     0.15200
H698        H  0.76134429  0.84445158  0.12859567     0.00900
H699        H  0.76666691  0.84679767  0.30330849     0.15500
H700        H  0.65624943  0.88273554  0.17672565     0.15300
C701        C  0.79390816  0.61918140  0.05381035     0.87100
C702        C  0.75031143  0.59514767  0.02345997    -0.53100
C703        C  0.72834847  0.58826731  0.05805215     0.10000
C704        C  0.75238741  0.60485968  0.11994445     0.21000
C705        C  0.78462274  0.66718114  0.07965501    -0.53900
C706        C  0.76273388  0.65939736  0.11438271     0.10100
C707        C  0.81647435  0.58477060  0.10551462    -0.53400
C708        C  0.79476279  0.57756661  0.14009515     0.10700
H709        H  0.74029434  0.58756981  0.48036716     0.15000
H710        H  0.73458982  0.59891453  0.14798858     0.00900
H711        H  0.79465323  0.70350580  0.07123111     0.15500
H712        H  0.84578146  0.56525732  0.11290623     0.15300
C713        C  0.95769108  0.82249639  0.30268434     0.87100
C714        C  0.95351879  0.77488726  0.33393468    -0.53100
C715        C  0.93313287  0.78220666  0.37055505     0.10000
C716        C  0.91981637  0.83609732  0.37315892     0.21000
C717        C  0.91215242  0.84213404  0.27387165    -0.53900
C718        C  0.89205308  0.84883403  0.31075000     0.10100
C719        C  0.97992433  0.85994906  0.35051429    -0.53400
C720        C  0.96030442  0.86666401  0.38772570     0.10700
H721        H  0.96493147  0.73899380  0.32678190     0.15200
H722        H  0.90366801  0.84162320  0.40324362     0.00900
H723        H  0.89714025  0.84777774  0.22797974     0.15500
H724        H  0.67105248  0.87711404  0.34765680     0.15300
C725        C  0.88055403  0.61474688  0.48579780     0.87100
C726        C  0.92627190  0.59596487  0.51384883    -0.53100
C727        C  0.94601851  0.59047815  0.47652519     0.10000
C728        C  0.91760285  0.60255754  0.41427684     0.21000
C729        C  0.88359225  0.66272165  0.45434080    -0.53900
C730        C  0.90347475  0.65607725  0.41703716     0.10100
C731        C  0.85839462  0.57712148  0.43821753    -0.53400
C732        C  0.87771779  0.57096091  0.40051007     0.10700
H733        H  0.94030911  0.59197737  0.05485251     0.15200
H734        H  0.93354775  0.59762359  0.38386425     0.00900
H735        H  0.87192327  0.69832081  0.46189984     0.15500
H736        H  0.83014186  0.55697923  0.43493973     0.15300
C737        C  0.71876612  0.11324931  0.23308034     0.87100
C738        C  0.76386647  0.09230608  0.25802702    -0.53100
C739        C  0.78228925  0.08803426  0.21894954     0.10000
C740        C  0.75269752  0.10364110  0.15795382     0.21000
C741        C  0.72250706  0.16250817  0.20461102    -0.53900
C742        C  0.74071226  0.15740182  0.16527156     0.10100
C743        C  0.69418394  0.07863459  0.18365662    -0.53400
C744        C  0.71160046  0.07370082  0.14397382     0.10700
H745        H  0.78030209  0.08573696  0.30356009     0.15200
H746        H  0.76722602  0.09961076  0.12583028     0.00900
H747        H  0.71205083  0.19767213  0.21526870     0.15500
H748        H  0.66578577  0.05904881  0.18092526     0.15300
C749        C  0.78797669  0.32816188  0.05063716     0.87100
C750        C  0.78632094  0.28073511  0.08360217    -0.53100
C751        C  0.76528155  0.28678124  0.11950652     0.10000
C752        C  0.74909489  0.33987061  0.11993559     0.21000
C753        C  0.74189079  0.34437521  0.02057947    -0.53900
C754        C  0.72100573  0.34940228  0.05649025     0.10100
C755        C  0.80808620  0.36752822  0.09655378    -0.53400
C756        C  0.78835578  0.37320563  0.13359775     0.10700
H757        H  0.79968451  0.24568857  0.07772677     0.15200
H758        H  0.73233606  0.34466101  0.14939351     0.00900
H759        H  0.73314667  0.35342837  0.47644209     0.15500
H760        H  0.83573036  0.38893456  0.09980136     0.15300
C761        C  0.96863147  0.11649121  0.30678096     0.87100
C762        C  0.92390545  0.09555727  0.27490555    -0.53100
C763        C  0.90192545  0.08772335  0.30920950     0.10000
C764        C  0.92702195  0.10101012  0.37223513     0.21000
C765        C  0.96171776  0.16361935  0.33607432    -0.53900
C766        C  0.93937346  0.15546294  0.37006520     0.10100
C767        C  0.99009524  0.07910981  0.35574470    -0.53400
C768        C  0.96858892  0.07152307  0.39043813     0.10700
H769        H  0.91081890  0.08883084  0.22913391     0.15200
H770        H  0.90912458  0.09468874  0.40007239     0.00900
H771        H  0.97300459  0.19982673  0.32958827     0.15500
H772        H  0.01912042  0.05937454  0.36178709     0.15300
C773        C  0.87604343  0.32038974  0.47608925     0.87100
C774        C  0.88402969  0.27294994  0.44814333    -0.53100
C775        C  0.90585035  0.28120662  0.41342162     0.10000
C776        C  0.91701173  0.33595888  0.40973429     0.21000
C777        C  0.91991181  0.34293347  0.50695070    -0.53900
C778        C  0.94178759  0.35025779  0.47249255     0.10100
C779        C  0.85382193  0.35651374  0.42620357    -0.53400
C780        C  0.87494723  0.36438526  0.39135913     0.10700
H781        H  0.87366684  0.23658927  0.45584574     0.15200
H782        H  0.93469772  0.34258272  0.38168800     0.00900
H783        H  0.93479722  0.34221456  0.05361651     0.15500
H784        H  0.82530441  0.37713730  0.42027221     0.15300
O785        O  0.78044724  0.42240119  0.20686857    -0.72300
O786        O  0.82359093  0.52204737  0.33338027    -0.73300
O787        O  0.78360100  0.52721398  0.21086527    -0.61900
O788        O  0.82222250  0.41814201  0.32840800    -0.70300
O789        O  0.88490177  0.41677297  0.32179916    -0.69900
O790        O  0.84687225  0.52578664  0.20606296    -0.61200
O791        O  0.88661756  0.52159899  0.32784764    -0.73700
O792        O  0.84304101  0.42231207  0.20002185    -0.72400
Cu793      Cu  0.80026633  0.47253485  0.27015437     1.04600
Cu794      Cu  0.86754595  0.47161691  0.26375342     1.04300
C795        C  0.80469194  0.40742962  0.18264704     0.93900
C796        C  0.86188277  0.53673961  0.35144351     0.93000
C797        C  0.80916483  0.54244450  0.18858158     0.85100
C798        C  0.85987468  0.40101687  0.34442552     0.91400
O799        O  0.71478117  0.91893383  0.07187369    -0.72300
O800        O  0.67680126  0.01517653  0.44056748    -0.73300
O801        O  0.71772580  0.02314548  0.07118546    -0.61900
O802        O  0.67637830  0.91173746  0.44634131    -0.70300
O803        O  0.95104307  0.91781576  0.45859886    -0.69900
O804        O  0.99418102  0.02649156  0.08996072    -0.61200
O805        O  0.95619288  0.02210415  0.46008791    -0.73700
O806        O  0.98782658  0.92267746  0.08545829    -0.72400
Cu807      Cu  0.69786678  0.97129451  0.01059952     1.04600
Cu808      Cu  0.96725085  0.97697401  0.02666802     1.04300
C809        C  0.68967616  0.90521791  0.09548289     0.93900
C810        C  0.98257151  0.03597581  0.43877904     0.93000
C811        C  0.69366283  0.04013287  0.09457973     0.85100
C812        C  0.97621071  0.90099966  0.43662348     0.91400
C813        C  0.92522100  0.19434987  0.40013672    -0.15800
C814        C  0.92054692  0.24230077  0.38395357    -0.31000
H815        H  0.91667370  0.18218185  0.43513249     0.13200
H816        H  0.92903954  0.25439102  0.34887613     0.13800
C817        C  0.98735941  0.36165812  0.49365720    -0.15800
C818        C  0.67436125  0.35183802  0.03625826    -0.31000
H819        H  0.99956417  0.37295129  0.46184721     0.13200
H820        H  0.66148667  0.36317124  0.06725400     0.13800
C821        C  0.80901218  0.32132520  0.00893060    -0.15800
C822        C  0.85426638  0.31186704  0.51720511    -0.31000
H823        H  0.78926885  0.31903696  0.96354493     0.13200
H824        H  0.87113377  0.32610968  0.07035495     0.13800
C825        C  0.85641907  0.07476859  0.28891430    -0.15800
C826        C  0.82869351  0.08275289  0.23476903    -0.31000
H827        H  0.84511177  0.06496794  0.32202813     0.13200
H828        H  0.84021029  0.09263673  0.20180637     0.13800
C829        C  0.69935655  0.11678445  0.27704146    -0.15800
C830        C  0.99148170  0.12541735  0.26688542    -0.31000
H831        H  0.71770930  0.10325876  0.31985049     0.13200
H832        H  0.97242484  0.12819197  0.22127551     0.13800
C833        C  0.75109995  0.19868009  0.13411051    -0.15800
C834        C  0.75483612  0.24614264  0.15144178    -0.31000
H835        H  0.75726917  0.18883578  0.09656691     0.13200
H836        H  0.74821439  0.25639937  0.18850078     0.13800
C837        C  0.92138023  0.74284973  0.40269689    -0.15800
C838        C  0.91450197  0.69578387  0.38466587    -0.31000
H839        H  0.91637051  0.75383751  0.44079561     0.13200
H840        H  0.91947500  0.68487855  0.34652498     0.13800
C841        C  0.99217223  0.58400781  0.49370055    -0.15800
C842        C  0.68327632  0.57428144  0.03835913    -0.31000
H843        H  0.00313215  0.57690758  0.45964314     0.13200
H844        H  0.67167212  0.56537884  0.07145015     0.13800
C845        C  0.81628200  0.62742597  0.01280345    -0.15800
C846        C  0.86064600  0.62053872  0.52940350    -0.31000
H847        H  0.79691167  0.63769333  0.96884393     0.13200
H848        H  0.87791510  0.61002648  0.07064363     0.13800
C849        C  0.84599391  0.85760039  0.29347026    -0.15800
C850        C  0.81836511  0.85835621  0.23861506    -0.31000
H851        H  0.83455122  0.85705024  0.32777166     0.13200
H852        H  0.82979058  0.85918974  0.20431055     0.13800
C853        C  0.97842570  0.81561059  0.25978055    -0.15800
C854        C  0.68487728  0.81541332  0.26937255    -0.31000
H855        H  0.95839538  0.81801208  0.21454359     0.13200
H856        H  0.70457364  0.81594977  0.31481950     0.13800
C857        C  0.74299152  0.74586299  0.12737933    -0.15800
C858        C  0.74861242  0.69825560  0.14427116    -0.31000
H859        H  0.75003124  0.75780147  0.09103270     0.13200
H860        H  0.74178830  0.68645639  0.18083649     0.13800
C861        C  0.70133859  0.82139157  0.72437208     0.87100
C862        C  0.71000088  0.77401986  0.69670101    -0.53100
C863        C  0.73247069  0.78240500  0.66280286     0.10000
C864        C  0.74387166  0.83700737  0.65971310     0.21000
C865        C  0.74533478  0.84404215  0.75611717    -0.53900
C866        C  0.76779261  0.85167627  0.72233784     0.10100
C867        C  0.67963216  0.85754887  0.67370408    -0.53400
C868        C  0.70200744  0.86552987  0.63994210     0.10700
H869        H  0.69941504  0.73757528  0.70374536     0.15200
H870        H  0.76219503  0.84339943  0.63243670     0.00900
H871        H  0.75770079  0.85172272  0.80167169     0.15500
H872        H  0.65027502  0.87700956  0.66605062     0.15300
C873        C  0.79723217  0.61856016  0.55624494     0.87100
C874        C  0.75328271  0.59550912  0.52584588    -0.53100
C875        C  0.73185474  0.58771972  0.56088533     0.10000
C876        C  0.75674419  0.60270632  0.62317373     0.21000
C877        C  0.78898405  0.66595797  0.58413230    -0.53900
C878        C  0.76739264  0.65748502  0.61911359     0.10100
C879        C  0.81997153  0.58261240  0.60642992    -0.53400
C880        C  0.79880308  0.57453610  0.64145619     0.10700
H881        H  0.73780256  0.58606596  0.97825730     0.15000
H882        H  0.73930357  0.59611087  0.65153862     0.00900
H883        H  0.79890227  0.70245785  0.57608589     0.15500
H884        H  0.84895322  0.56290489  0.61229938     0.15300
C885        C  0.95231885  0.83009502  0.80593257     0.87100
C886        C  0.94960242  0.78205199  0.83741681    -0.53100
C887        C  0.92917629  0.78784009  0.87417279     0.10000
C888        C  0.91481217  0.84142493  0.87729233     0.21000
C889        C  0.90627322  0.84803982  0.77759721    -0.53900
C890        C  0.88636501  0.85358512  0.81494120     0.10100
C891        C  0.97374976  0.86804606  0.85329158    -0.53400
C892        C  0.95436497  0.87391634  0.89097713     0.10700
H893        H  0.96139523  0.74665367  0.82951819     0.15200
H894        H  0.89882299  0.84604082  0.90769447     0.00900
H895        H  0.89057229  0.85228171  0.73157712     0.15500
H896        H  0.66935119  0.88311563  0.85058906     0.15300
C897        C  0.87735227  0.61440975  0.98237313     0.87100
C898        C  0.92370894  0.59690641  0.00904877    -0.53100
C899        C  0.94266624  0.59268320  0.97052675     0.10000
C900        C  0.91308026  0.60524203  0.90894737     0.21000
C901        C  0.87903357  0.66322340  0.95144418    -0.53900
C902        C  0.89844181  0.65842103  0.91335378     0.10100
C903        C  0.85532549  0.57701313  0.93464085    -0.53400
C904        C  0.87411405  0.57194457  0.89629402     0.10700
H905        H  0.94173661  0.58959772  0.55961894     0.15200
H906        H  0.92831793  0.60146322  0.87757218     0.00900
H907        H  0.86737536  0.69825028  0.96056586     0.15500
H908        H  0.82809224  0.55530772  0.93253385     0.15300
C909        C  0.70737254  0.12004103  0.71195420     0.87100
C910        C  0.75073720  0.09633135  0.74725893    -0.53100
C911        C  0.77458114  0.08638864  0.71561684     0.10000
C912        C  0.75166300  0.09915082  0.65147303     0.21000
C913        C  0.71767893  0.16524144  0.68344385    -0.53900
C914        C  0.74147212  0.15461879  0.65232867     0.10100
C915        C  0.68533200  0.08442199  0.66267702    -0.53400
C916        C  0.70834866  0.07278383  0.63126087     0.10700
H917        H  0.76222665  0.09139902  0.79334834     0.15200
H918        H  0.77046760  0.09069078  0.62538106     0.00900
H919        H  0.70683870  0.20231423  0.68760723     0.15500
H920        H  0.65406915  0.06929084  0.65367905     0.15300
C921        C  0.79466287  0.32755030  0.54848048     0.87100
C922        C  0.79299640  0.27803947  0.57741255    -0.53100
C923        C  0.77378500  0.28164526  0.61549374     0.10000
C924        C  0.75818999  0.33403767  0.62103877     0.21000
C925        C  0.74869285  0.34544833  0.52180443    -0.53900
C926        C  0.72901864  0.34769457  0.55945283     0.10100
C927        C  0.81657728  0.36380611  0.59760755    -0.53400
C928        C  0.79728704  0.36734733  0.63568854     0.10700
H929        H  0.80530318  0.24357987  0.56791414     0.15200
H930        H  0.74248693  0.33638741  0.65201530     0.00900
H931        H  0.72685339  0.34903102  0.97446904     0.15500
H932        H  0.84419743  0.38540220  0.60114911     0.15300
C933        C  0.96209913  0.10929392  0.80369790     0.87100
C934        C  0.91595520  0.09140743  0.77638118    -0.53100
C935        C  0.89420087  0.09440202  0.81193290     0.10000
C936        C  0.92165603  0.11380086  0.87222181     0.21000
C937        C  0.95922629  0.16206812  0.82480680    -0.53900
C938        C  0.93757081  0.16481638  0.85997307     0.10100
C939        C  0.98207012  0.07859855  0.85787418    -0.53400
C940        C  0.96137101  0.07984179  0.89392533     0.10700
H941        H  0.90186855  0.08002893  0.73198675     0.15200
H942        H  0.90485966  0.11531710  0.90188608     0.00900
H943        H  0.97174215  0.19500542  0.81238787     0.15500
H944        H  0.00987634  0.05559550  0.86578623     0.15300
C945        C  0.87107572  0.32256168  0.98195090     0.87100
C946        C  0.86878874  0.27229971  0.95326474    -0.53100
C947        C  0.88849984  0.27118521  0.91576718     0.10000
C948        C  0.90714721  0.32202129  0.90845454     0.21000
C949        C  0.91816724  0.33544558  0.00821502    -0.53900
C950        C  0.93709481  0.33558029  0.96956103     0.10100
C951        C  0.85182517  0.35986222  0.93277453    -0.53400
C952        C  0.87056957  0.35986765  0.89405454     0.10700
H953        H  0.85505883  0.23955759  0.96444430     0.15200
H954        H  0.92245150  0.32206220  0.87699634     0.00900
H955        H  0.93276079  0.35054806  0.55253840     0.15500
H956        H  0.82653597  0.38535071  0.93002748     0.15300
O957        O  0.78552269  0.41675462  0.70602109    -0.72300
O958        O  0.82206715  0.51924366  0.83071775    -0.73300
O959        O  0.78639306  0.52186991  0.70889031    -0.61900
O960        O  0.82093033  0.41457699  0.82810132    -0.70300
O961        O  0.88530466  0.41228137  0.82704963    -0.69900
O962        O  0.85066567  0.52115099  0.70736528    -0.61200
O963        O  0.88637588  0.51879124  0.82932888    -0.73700
O964        O  0.84979063  0.41696246  0.70445022    -0.72400
Cu965      Cu  0.80152248  0.46806984  0.76849135     1.04600
Cu966      Cu  0.87036248  0.46724583  0.76718669     1.04300
C967        C  0.81163091  0.40166468  0.68467725     0.93900
C968        C  0.86008551  0.53513354  0.84967936     0.93000
C969        C  0.81280445  0.53784720  0.68855981     0.85100
C970        C  0.85838647  0.39676829  0.84690775     0.91400
O971        O  0.71436441  0.91385637  0.56836590    -0.72300
O972        O  0.67575016  0.02351635  0.95031265    -0.73300
O973        O  0.71755248  0.01872909  0.56284327    -0.61900
O974        O  0.67512070  0.91951090  0.95020327    -0.70300
O975        O  0.94604740  0.92581401  0.96303211    -0.69900
O976        O  0.99412561  0.02072130  0.58159052    -0.61200
O977        O  0.94998450  0.03197771  0.96707400    -0.73700
O978        O  0.98712714  0.91638974  0.58041697    -0.72400
Cu979      Cu  0.69848909  0.96474695  0.50442346     1.04600
Cu980      Cu  0.97004791  0.96946784  0.52041216     1.04300
C981        C  0.68838646  0.90061421  0.59092806     0.93900
C982        C  0.97533400  0.04584996  0.94398581     0.93000
C983        C  0.69249330  0.03671071  0.58408584     0.85100
C984        C  0.97030338  0.90918665  0.93933259     0.91400
C985        C  0.92952101  0.21375709  0.88065098    -0.15800
C986        C  0.89522503  0.22303273  0.89219489    -0.31000
H987        H  0.95199917  0.24327396  0.88465949     0.13200
H988        H  0.87280102  0.19345681  0.88822298     0.13800
C989        C  0.98281334  0.34223898  0.98456360    -0.15800
C990        C  0.68258186  0.35210601  0.54227275    -0.31000
H991        H  0.99467385  0.32891456  0.95325862     0.13200
H992        H  0.67114259  0.35341037  0.57657995     0.13800
C993        C  0.81377341  0.32428648  0.50438406    -0.15800
C994        C  0.85106022  0.32257370  0.02526672    -0.31000
H995        H  0.79344484  0.33339598  0.46069049     0.13200
H996        H  0.87335781  0.29923661  0.56039006     0.13800
C997        C  0.84730238  0.08867821  0.79329233    -0.15800
C998        C  0.82105531  0.07605565  0.73969247    -0.31000
H999        H  0.83394916  0.10095152  0.82347657     0.13200
H1000       H  0.83423346  0.06468991  0.70906129     0.13800
C1001       C  0.68088862  0.13306825  0.74548894    -0.15800
C1002       C  0.98700916  0.10098960  0.76663358    -0.31000
H1003       H  0.67602126  0.17180026  0.75236812     0.13200
H1004       H  0.99037517  0.06248780  0.75640541     0.13800
C1005       C  0.75795242  0.19324892  0.62503966    -0.15800
C1006       C  0.76461470  0.23960863  0.64588955    -0.31000
H1007       H  0.76375580  0.18346908  0.58719909     0.13200
H1008       H  0.75946968  0.24865725  0.68439374     0.13800
C1009       C  0.91683209  0.74665630  0.90385553    -0.15800
C1010       C  0.90998813  0.70004560  0.88346619    -0.31000
H1011       H  0.91125091  0.75593831  0.94200596     0.13200
H1012       H  0.91547252  0.69089589  0.84520649     0.13800
C1013       C  0.98891575  0.58832277  0.98587323    -0.15800
C1014       C  0.68674922  0.57399741  0.54162825    -0.31000
H1015       H  0.99982655  0.59765061  0.95220795     0.13200
H1016       H  0.67526383  0.56642221  0.57512995     0.13800
C1017       C  0.81894621  0.62738567  0.51474980    -0.15800
C1018       C  0.85767778  0.61806670  0.02655640    -0.31000
H1019       H  0.79912392  0.63322210  0.46979281     0.13200
H1020       H  0.88084552  0.61523118  0.57419137     0.13800
C1021       C  0.83995534  0.85837185  0.79757469    -0.15800
C1022       C  0.81303476  0.86535041  0.74304502    -0.31000
H1023       H  0.82785417  0.84921698  0.83012767     0.13200
H1024       H  0.82502209  0.87441530  0.71039714     0.13800
C1025       C  0.97284610  0.82364347  0.76274284    -0.15800
C1026       C  0.67905433  0.81193123  0.76554185    -0.31000
H1027       H  0.95247424  0.82359881  0.71751858     0.13200
H1028       H  0.69823130  0.79847008  0.80831466     0.13800
C1029       C  0.74727897  0.74394911  0.63286834    -0.15800
C1030       C  0.75236641  0.69599353  0.64875440    -0.31000
H1031       H  0.75587018  0.75649552  0.59803177     0.13200
H1032       H  0.74380013  0.68353346  0.68364286     0.13800
loop_ 
_geom_bond_atom_site_label_1 
_geom_bond_atom_site_label_2 
_geom_bond_distance 
_geom_bond_site_symmetry_2 
_ccdc_geom_bond_type 
C1            C2   1.542       .  S
C1            C7   1.541       .  S
C1            C5   1.540       .  S
C1          C166   1.525       .  S
C2            H9   1.085       .  S
C2            C3   1.375       .  D
C3            C4   1.531       .  S
C3          C169   1.486       .  S
C4            C8   1.531       .  S
C4            C6   1.529       .  S
C4           H10   1.112       .  S
C5           H11   1.085       .  S
C5            C6   1.370       .  D
C6          C162   1.480       .  S
C7           H12   1.086   1_455  S
C7            C8   1.365       .  D
C8          C121   1.474       .  S
C13          C14   1.539       .  S
C13          C19   1.542       .  S
C13          C17   1.541       .  S
C13         C157   1.524       .  S
C14         H193   1.084   1_554  S
C14          C15   1.369       .  D
C15          C16   1.532       .  S
C15         C154   1.483       .  S
C16          C20   1.534       .  S
C16          C18   1.532       .  S
C16          H22   1.111       .  S
C17          H23   1.085       .  S
C17          C18   1.375       .  D
C18         C170   1.486       .  S
C19          H24   1.086       .  S
C19          C20   1.365       .  D
C20         C109   1.477       .  S
H21         C186   1.084       .  S
C25          C26   1.542       .  S
C25          C31   1.537       .  S
C25          C29   1.541       .  S
C25         C165   1.521       .  S
C26          H33   1.085       .  S
C26          C27   1.375       .  D
C27          C28   1.536       .  S
C27         C149   1.487       .  S
C28          C32   1.537       .  S
C28          C30   1.528       .  S
C28          H34   1.112       .  S
C29          H35   1.084       .  S
C29          C30   1.370       .  D
C30         C161   1.482       .  S
C31         H380   1.086       .  S
C31          C32   1.365       .  D
C32         C124   1.478       .  S
H36         C719   1.086   1_455  S
C37          C38   1.536       .  S
C37          C43   1.539       .  S
C37          C41   1.540       .  S
C37         C158   1.524       .  S
C38         H217   1.083       .  S
C38          C39   1.371       .  D
C39          C40   1.534       .  S
C39         C153   1.483       .  S
C40          C44   1.535       .  S
C40          C42   1.535       .  S
C40          H46   1.111       .  S
C41          H47   1.085       .  S
C41          C42   1.374       .  D
C42         C150   1.488       .  S
C43          H48   1.085       .  S
C43          C44   1.363       .  D
C44         C108   1.477       .  S
H45         C210   1.083       .  S
C49          C50   1.537       .  S
C49          C55   1.530       .  S
C49          C53   1.539       .  S
C49         C141   1.515       .  S
C50          H57   1.083       .  S
C50          C51   1.373       .  D
C51          C52   1.542       .  S
C51         C138   1.499       .  S
C52          C56   1.543       .  S
C52          C54   1.532       .  S
C52          H58   1.111       .  S
C53          H59   1.085       .  S
C53          C54   1.374       .  D
C54         C145   1.480       .  S
C55          H60   1.087       .  S
C55          C56   1.358       .  D
C56         C123   1.477       .  S
C61          C62   1.537       .  S
C61          C67   1.537       .  S
C61          C65   1.529       .  S
C61         C133   1.511       .  S
C62          H69   1.085       .  S
C62          C63   1.374       .  D
C63          C64   1.533       .  S
C63         C146   1.482       .  S
C64          C68   1.537       .  S
C64          C66   1.535       .  S
C64          H70   1.111       .  S
C65         H243   1.085   1_554  S
C65          C66   1.365       .  D
C66         C130   1.476       .  S
C67          H72   1.086       .  S
C67          C68   1.363       .  D
C68         C107   1.474       .  S
H71         C237   1.084       .  S
C73          C74   1.548       .  S
C73          C79   1.533       .  S
C73          C77   1.516       .  S
C73         C142   1.500       .  S
C74          H81   1.084       .  S
C74          C75   1.374       .  D
C75          C76   1.538       .  S
C75         C137   1.491       .  S
C76          C80   1.547       .  S
C76          C78   1.548       .  S
C76          H82   1.111       .  S
C77          H83   1.087       .  S
C77          C78   1.353       .  D
C78         C125   1.464       .  S
C79          H84   1.087       .  S
C79          C80   1.360       .  D
C80         C122   1.480       .  S
C85          C86   1.525       .  S
C85          C91   1.531       .  S
C85          C89   1.535       .  S
C85         C134   1.496       .  S
C86          H93   1.087       .  S
C86          C87   1.355       .  D
C87          C88   1.548       .  S
C87         C126   1.469       .  S
C88          C92   1.546       .  S
C88          C90   1.538       .  S
C88          H94   1.111       .  S
C89         H267   1.083       .  S
C89          C90   1.369       .  D
C90         C129   1.486       .  S
C91          H96   1.086       .  S
C91          C92   1.366       .  D
C92         C110   1.482       .  S
H95         C261   1.084       .  S
O97        Cu105   2.010       .  S
O97         C107   1.277       .  A
O98        Cu105   2.003       .  S
O98         C108   1.277       .  A
O99        Cu105   2.008       .  S
O99         C109   1.277       .  A
O100       Cu105   2.005       .  S
O100        C110   1.278       .  A
O101       Cu106   2.033       .  S
O101        C110   1.279       .  A
O102       Cu106   2.014       .  S
O102        C109   1.278       .  A
O103       Cu106   2.019       .  S
O103        C108   1.278       .  A
O104       Cu106   2.006       .  S
O104        C107   1.278       .  A
Cu105      Cu106   2.374       .  S
O111       Cu119   2.007       .  S
O111        C121   1.278       .  A
O112       Cu291   2.020   1_545  S
O112        C810   1.280   1_455  A
O113       Cu119   2.001   1_545  S
O113        C123   1.274       .  A
O114       Cu291   2.008       .  S
O114        C812   1.277   1_455  A
O115       Cu292   2.010       .  S
O115        C124   1.278       .  A
O116       Cu120   1.992   1_545  S
O116        C467   1.281       .  A
O117       Cu292   2.019   1_545  S
O117        C122   1.276       .  A
O118       Cu120   1.993       .  S
O118        C465   1.275       .  A
Cu119       O284   1.997   1_564  S
Cu119       O286   2.001   1_554  S
Cu119      Cu808   2.374   1_455  S
Cu120       O287   2.002   1_554  S
Cu120       O289   2.002   1_564  S
Cu120      Cu463   2.377       .  S
C121        O806   1.277   1_455  A
C122        O456   1.280       .  A
C123        O804   1.282   1_455  A
C124        O458   1.279       .  A
C125        H127   1.087       .  S
C125        C126   1.334       .  D
C126        H128   1.087       .  S
C129        H131   1.083       .  S
C129        C646   1.347       .  D
C130        H132   1.083   1_455  S
C130        C989   1.346   1_454  D
C133        H135   1.086   1_554  S
C133        C306   1.340       .  D
C134        H308   1.086       .  S
C134        C305   1.339       .  D
H136        C306   1.086       .  S
C137        H139   1.082       .  S
C137        C138   1.349       .  D
C138        H140   1.084       .  S
C141        H143   1.085       .  S
C141        C830   1.347   1_455  D
C142        H144   1.084       .  S
C142        C485   1.330       .  D
C145        H147   1.085       .  S
C145        C146   1.341       .  D
C146        H148   1.085       .  S
C149        H151   1.085       .  S
C149        C150   1.344       .  D
C150        H152   1.085       .  S
C153        H155   1.083       .  S
C153        C670   1.344       .  D
C154        H156   1.083       .  S
C154       C1013   1.344   1_454  D
C157        H159   1.086   1_554  S
C157        C330   1.347       .  D
C158        H332   1.087       .  S
C158        C329   1.346       .  D
H160        C330   1.086       .  S
C161        H163   1.084       .  S
C161        C162   1.341       .  D
C162        H164   1.083       .  S
C165        H167   1.082       .  S
C165        C510   1.349       .  D
C166        H168   1.086       .  S
C166        C853   1.348   1_455  D
C169        H171   1.085       .  S
C169        C170   1.342       .  D
C170        H172   1.085       .  S
C173        C174   1.536       .  S
C173        C179   1.535       .  S
C173        C177   1.543       .  S
C173        C338   1.522       .  S
C174        H181   1.086       .  S
C174        C175   1.368       .  D
C175        C176   1.545       .  S
C175        C341   1.489       .  S
C176        C180   1.538       .  S
C176        C178   1.527       .  S
C176        H182   1.110       .  S
C177        H183   1.084       .  S
C177        C178   1.372       .  D
C178        C334   1.478       .  S
C179        H184   1.086   1_455  S
C179        C180   1.366       .  D
C180        C293   1.480       .  S
C185        C186   1.539       .  S
C185        C191   1.536       .  S
C185        C189   1.532       .  S
C185        C329   1.517       .  S
C186        C187   1.369       .  D
C187        C188   1.531       .  S
C187        C326   1.479       .  S
C188        C192   1.543       .  S
C188        C190   1.547       .  S
C188        H194   1.110       .  S
C189        H195   1.086       .  S
C189        C190   1.367       .  D
C190        C342   1.487       .  S
C191        H196   1.086       .  S
C191        C192   1.369       .  D
C192        C281   1.486       .  S
C197        C198   1.543       .  S
C197        C203   1.536       .  S
C197        C201   1.538       .  S
C197        C337   1.518       .  S
C198        H205   1.085       .  S
C198        C199   1.376       .  D
C199        C200   1.527       .  S
C199        C321   1.479       .  S
C200        C204   1.527       .  S
C200        C202   1.526       .  S
C200        H206   1.112       .  S
C201        H207   1.085       .  S
C201        C202   1.368       .  D
C202        C333   1.479       .  S
C203        H552   1.086       .  S
C203        C204   1.366       .  D
C204        C296   1.467       .  S
H208        C891   1.086   1_455  S
C209        C210   1.538   1_556  S
C209        C215   1.539       .  S
C209        C213   1.542       .  S
C209        C330   1.522   1_556  S
C210        C211   1.370   1_554  D
C211        C212   1.529       .  S
C211        C325   1.482       .  S
C212        C216   1.528       .  S
C212        C214   1.526       .  S
C212        H218   1.112       .  S
C213        H219   1.085       .  S
C213        C214   1.376       .  D
C214        C322   1.480       .  S
C215        H220   1.086       .  S
C215        C216   1.364       .  D
C216        C280   1.466       .  S
C221        C222   1.537       .  S
C221        C227   1.520       .  S
C221        C225   1.527       .  S
C221        C313   1.511       .  S
C222        H229   1.086       .  S
C222        C223   1.371       .  D
C223        C224   1.556       .  S
C223        C310   1.502       .  S
C224        C228   1.557       .  S
C224        C226   1.546       .  S
C224        H230   1.108       .  S
C225        H231   1.085       .  S
C225        C226   1.369       .  D
C226        C317   1.488       .  S
C227        H232   1.086   1_455  S
C227        C228   1.360       .  D
C228        C295   1.487       .  S
C233        C234   1.537       .  S
C233        C239   1.533       .  S
C233        C237   1.530       .  S
C233        C305   1.502       .  S
C234        H241   1.085       .  S
C234        C235   1.368       .  D
C235        C236   1.540       .  S
C235        C318   1.480       .  S
C236        C240   1.535       .  S
C236        C238   1.536       .  S
C236        H242   1.111       .  S
C237        C238   1.367       .  D
C238        C302   1.477       .  S
C239        H244   1.086       .  S
C239        C240   1.358       .  D
C240        C279   1.469       .  S
C245        C246   1.547       .  S
C245        C251   1.515       .  S
C245        C249   1.528       .  S
C245        C314   1.510       .  S
C246        H253   1.083       .  S
C246        C247   1.369       .  D
C247        C248   1.553       .  S
C247        C309   1.500       .  S
C248        C252   1.552       .  S
C248        C250   1.542       .  S
C248        H254   1.108       .  S
C249        H255   1.085       .  S
C249        C250   1.372       .  D
C250        C297   1.484       .  S
C251        H256   1.088       .  S
C251        C252   1.353       .  D
C252        C294   1.476       .  S
C257        C258   1.538       .  S
C257        C263   1.541       .  S
C257        C261   1.533   1_556  S
C257        C306   1.510   1_556  S
C258        H265   1.085       .  S
C258        C259   1.370       .  D
C259        C260   1.536       .  S
C259        C298   1.479       .  S
C260        C264   1.538       .  S
C260        C262   1.537       .  S
C260        H266   1.111       .  S
C261        C262   1.365   1_554  D
C262        C301   1.484       .  S
C263        H268   1.086       .  S
C263        C264   1.364       .  D
C264        C282   1.479       .  S
O269       Cu277   2.013       .  S
O269        C279   1.276       .  A
O270       Cu277   1.997       .  S
O270        C280   1.276       .  A
O271       Cu277   2.042       .  S
O271        C281   1.282       .  A
O272       Cu277   2.022       .  S
O272        C282   1.280       .  A
O273       Cu278   2.008       .  S
O273        C282   1.276       .  A
O274       Cu278   2.006       .  S
O274        C281   1.277       .  A
O275       Cu278   1.995       .  S
O275        C280   1.277       .  A
O276       Cu278   1.991       .  S
O276        C279   1.277       .  A
Cu277      Cu278   2.375       .  S
O283       Cu291   2.035       .  S
O283        C293   1.281       .  A
O284        C982   1.280   1_455  A
O285       Cu291   2.034   1_545  S
O285        C295   1.277       .  A
O286        C984   1.276   1_455  A
O287        C296   1.278       .  A
O288       Cu292   1.991   1_545  S
O288        C639   1.279       .  A
O289        C294   1.272       .  A
O290       Cu292   1.999       .  S
O290        C637   1.276       .  A
Cu291      Cu980   2.373   1_455  S
Cu292      Cu635   2.373       .  S
C293        O978   1.275   1_455  A
C294        O628   1.283       .  A
C295        O976   1.281   1_455  A
C296        O630   1.274       .  A
C297        H299   1.084       .  S
C297        C298   1.345       .  D
C298        H300   1.085       .  S
C301        H303   1.083       .  S
C301        C474   1.349   1_556  D
C302        H304   1.084       .  S
C302        C817   1.345   1_455  D
C305        H307   1.087       .  S
C309        H311   1.083       .  S
C309        C310   1.348       .  D
C310        H312   1.083       .  S
C313        H315   1.081       .  S
C313       C1002   1.344   1_455  D
C314        H316   1.085       .  S
C314        C657   1.333       .  D
C317        H319   1.085       .  S
C317        C318   1.349       .  D
C318        H320   1.085       .  S
C321        H323   1.085       .  S
C321        C322   1.336       .  D
C322        H324   1.086       .  S
C325        H327   1.082       .  S
C325        C498   1.342   1_556  D
C326        H328   1.083       .  S
C326        C841   1.344   1_455  D
C329        H331   1.085       .  S
C333        H335   1.084       .  S
C333        C334   1.340       .  D
C334        H336   1.084       .  S
C337        H339   1.083       .  S
C337        C682   1.347       .  D
C338        H340   1.086       .  S
C338       C1025   1.348   1_455  D
C341        H343   1.085       .  S
C341        C342   1.348       .  D
C342        H344   1.085       .  S
C345        C346   1.542       .  S
C345        C351   1.543       .  S
C345        C349   1.539       .  S
C345        C510   1.531       .  S
C346        H353   1.085       .  S
C346        C347   1.375       .  D
C347        C348   1.530       .  S
C347        C513   1.483       .  S
C348        C352   1.529       .  S
C348        C350   1.529       .  S
C348        H354   1.112       .  S
C349        H355   1.084       .  S
C349        C350   1.371       .  D
C350        C506   1.481       .  S
C351        H356   1.083       .  S
C351        C352   1.366       .  D
C352        C465   1.475       .  S
C357        C358   1.538       .  S
C357        C363   1.540       .  S
C357        C361   1.541       .  S
C357        C501   1.524       .  S
C358        H537   1.083   1_554  S
C358        C359   1.371       .  D
C359        C360   1.530       .  S
C359        C498   1.482       .  S
C360        C364   1.530       .  S
C360        C362   1.529       .  S
C360        H366   1.112       .  S
C361        H367   1.085       .  S
C361        C362   1.375       .  D
C362        C514   1.483       .  S
C363        H368   1.086       .  S
C363        C364   1.365       .  D
C364        C453   1.473       .  S
H365        C530   1.084       .  S
C369        C370   1.540       .  S
C369        C375   1.536       .  S
C369        C373   1.538       .  S
C369        C509   1.520       .  S
C370        H377   1.085       .  S
C370        C371   1.375       .  D
C371        C372   1.530       .  S
C371        C493   1.481       .  S
C372        C376   1.528       .  S
C372        C374   1.531       .  S
C372        H378   1.112       .  S
C373        H379   1.083       .  S
C373        C374   1.372       .  D
C374        C505   1.482       .  S
C375        H724   1.086       .  S
C375        C376   1.362       .  D
C376        C468   1.467       .  S
C381        C382   1.535       .  S
C381        C387   1.539       .  S
C381        C385   1.540       .  S
C381        C502   1.521       .  S
C382        H561   1.084       .  S
C382        C383   1.369       .  D
C383        C384   1.532       .  S
C383        C497   1.481       .  S
C384        C388   1.533       .  S
C384        C386   1.531       .  S
C384        H390   1.112       .  S
C385        H391   1.085       .  S
C385        C386   1.375       .  D
C386        C494   1.482       .  S
C387        H392   1.086       .  S
C387        C388   1.368       .  D
C388        C452   1.477       .  S
H389        C554   1.084       .  S
C393        C394   1.528       .  S
C393        C399   1.508       .  S
C393        C397   1.548       .  S
C393        C485   1.494       .  S
C394        H401   1.087       .  S
C394        C395   1.361       .  D
C395        C396   1.555       .  S
C395        C482   1.492       .  S
C396        C400   1.550       .  S
C396        C398   1.541       .  S
C396        H402   1.108       .  S
C397        H403   1.082       .  S
C397        C398   1.376       .  D
C398        C489   1.490       .  S
C399        H404   1.088       .  S
C399        C400   1.351       .  D
C400        C467   1.470       .  S
C405        C406   1.538       .  S
C405        C411   1.536       .  S
C405        C409   1.531       .  S
C405        C477   1.512       .  S
C406        H413   1.084       .  S
C406        C407   1.374       .  D
C407        C408   1.540       .  S
C407        C490   1.491       .  S
C408        C412   1.541       .  S
C408        C410   1.538       .  S
C408        H414   1.111       .  S
C409        H587   1.083   1_554  S
C409        C410   1.367       .  D
C410        C474   1.484       .  S
C411        H416   1.086       .  S
C411        C412   1.361       .  D
C412        C451   1.476       .  S
H415        C581   1.084       .  S
C417        C418   1.528       .  S
C417        C423   1.536       .  S
C417        C421   1.533       .  S
C417        C486   1.514       .  S
C418        H425   1.087       .  S
C418        C419   1.361       .  D
C419        C420   1.554       .  S
C419        C481   1.489       .  S
C420        C424   1.549       .  S
C420        C422   1.540       .  S
C420        H426   1.109       .  S
C421        H427   1.085       .  S
C421        C422   1.374       .  D
C422        C469   1.489       .  S
C423        H428   1.083       .  S
C423        C424   1.361       .  D
C424        C466   1.483       .  S
C429        C430   1.542       .  S
C429        C435   1.540       .  S
C429        C433   1.535       .  S
C429        C478   1.515       .  S
C430        H437   1.085       .  S
C430        C431   1.373       .  D
C431        C432   1.534       .  S
C431        C470   1.484       .  S
C432        C436   1.530       .  S
C432        C434   1.534       .  S
C432        H438   1.112       .  S
C433        H611   1.084       .  S
C433        C434   1.367       .  D
C434        C473   1.479       .  S
C435        H440   1.085       .  S
C435        C436   1.360       .  D
C436        C454   1.470       .  S
H439        C605   1.084       .  S
O441       Cu449   2.008       .  S
O441        C451   1.276       .  A
O442       Cu449   2.001       .  S
O442        C452   1.276       .  A
O443       Cu449   2.013       .  S
O443        C453   1.279       .  A
O444       Cu449   1.997       .  S
O444        C454   1.277       .  A
O445       Cu450   2.004       .  S
O445        C454   1.276       .  A
O446       Cu450   1.999       .  S
O446        C453   1.276       .  A
O447       Cu450   2.024       .  S
O447        C452   1.280       .  A
O448       Cu450   2.014       .  S
O448        C451   1.280       .  A
Cu449      Cu450   2.375       .  S
O455       Cu463   2.019       .  S
O455        C465   1.280       .  A
O456       Cu635   2.013   1_545  S
O457       Cu463   2.001   1_545  S
O457        C467   1.272       .  A
O458       Cu635   2.020       .  S
O459       Cu636   2.010       .  S
O459        C468   1.278       .  A
O460       Cu464   2.024   1_545  S
O460        C811   1.282       .  A
O461       Cu636   2.015   1_545  S
O461        C466   1.275       .  A
O462       Cu464   2.010       .  S
O462        C809   1.278       .  A
Cu463       O628   2.006   1_564  S
Cu463       O630   1.993   1_554  S
Cu464       O631   2.037   1_554  S
Cu464       O633   2.036   1_564  S
Cu464      Cu807   2.373       .  S
C466        O800   1.282       .  A
C468        O802   1.275       .  A
C469        H471   1.085       .  S
C469        C470   1.344       .  D
C470        H472   1.084       .  S
C473        H475   1.081       .  S
C473        C990   1.347       .  D
C474        H476   1.083       .  S
C477        H479   1.087   1_554  S
C477        C650   1.339       .  D
C478        H652   1.087       .  S
C478        C649   1.343       .  D
H480        C650   1.087       .  S
C481        H483   1.084       .  S
C481        C482   1.339       .  D
C482        H484   1.085       .  S
C485        H487   1.089       .  S
C486        H488   1.088       .  S
C486        C829   1.342       .  D
C489        H491   1.083       .  S
C489        C490   1.347       .  D
C490        H492   1.084       .  S
C493        H495   1.085       .  S
C493        C494   1.340       .  D
C494        H496   1.085       .  S
C497        H499   1.083       .  S
C497       C1014   1.343       .  D
C498        H500   1.082       .  S
C501        H503   1.086   1_554  S
C501        C674   1.346       .  D
C502        H676   1.086       .  S
C502        C673   1.345       .  D
H504        C674   1.086       .  S
C505        H507   1.083       .  S
C505        C506   1.341       .  D
C506        H508   1.083       .  S
C509        H511   1.086       .  S
C509        C854   1.347       .  D
C510        H512   1.087       .  S
C513        H515   1.085       .  S
C513        C514   1.340       .  D
C514        H516   1.086       .  S
C517        C518   1.541       .  S
C517        C523   1.544       .  S
C517        C521   1.537       .  S
C517        C682   1.527       .  S
C518        H525   1.085       .  S
C518        C519   1.375       .  D
C519        C520   1.534       .  S
C519        C685   1.488       .  S
C520        C524   1.531       .  S
C520        C522   1.530       .  S
C520        H526   1.112       .  S
C521        H527   1.085       .  S
C521        C522   1.368       .  D
C522        C678   1.476       .  S
C523        H528   1.084       .  S
C523        C524   1.365       .  D
C524        C637   1.476       .  S
C529        C530   1.537       .  S
C529        C535   1.543       .  S
C529        C533   1.542       .  S
C529        C673   1.524       .  S
C530        C531   1.369       .  D
C531        C532   1.532       .  S
C531        C670   1.483       .  S
C532        C536   1.535       .  S
C532        C534   1.533       .  S
C532        H538   1.111       .  S
C533        H539   1.085       .  S
C533        C534   1.375       .  D
C534        C686   1.487       .  S
C535        H540   1.085       .  S
C535        C536   1.365       .  D
C536        C625   1.480       .  S
C541        C542   1.543       .  S
C541        C547   1.535       .  S
C541        C545   1.536       .  S
C541        C681   1.524       .  S
C542        H549   1.085       .  S
C542        C543   1.377       .  D
C543        C544   1.539       .  S
C543        C665   1.491       .  S
C544        C548   1.537       .  S
C544        C546   1.531       .  S
C544        H550   1.112       .  S
C545        H551   1.084       .  S
C545        C546   1.368       .  D
C546        C677   1.481       .  S
C547        H896   1.086       .  S
C547        C548   1.368       .  D
C548        C640   1.482       .  S
C553        C554   1.537   1_556  S
C553        C559   1.538       .  S
C553        C557   1.540       .  S
C553        C674   1.522   1_556  S
C554        C555   1.370   1_554  D
C555        C556   1.531       .  S
C555        C669   1.482       .  S
C556        C560   1.540       .  S
C556        C558   1.539       .  S
C556        H562   1.111       .  S
C557        H563   1.085       .  S
C557        C558   1.375       .  D
C558        C666   1.492       .  S
C559        H564   1.086       .  S
C559        C560   1.365       .  D
C560        C624   1.480       .  S
C565        C566   1.545       .  S
C565        C571   1.519       .  S
C565        C569   1.523       .  S
C565        C657   1.508       .  S
C566        H573   1.084       .  S
C566        C567   1.371       .  D
C567        C568   1.557       .  S
C567        C654   1.500       .  S
C568        C572   1.547       .  S
C568        C570   1.535       .  S
C568        H574   1.108       .  S
C569        H575   1.086       .  S
C569        C570   1.368       .  D
C570        C661   1.474       .  S
C571        H576   1.088       .  S
C571        C572   1.358       .  D
C572        C639   1.479       .  S
C577        C578   1.534       .  S
C577        C583   1.542       .  S
C577        C581   1.537       .  S
C577        C649   1.509       .  S
C578        H585   1.085       .  S
C578        C579   1.368       .  D
C579        C580   1.532       .  S
C579        C662   1.469       .  S
C580        C584   1.532       .  S
C580        C582   1.533       .  S
C580        H586   1.112       .  S
C581        C582   1.366       .  D
C582        C646   1.483       .  S
C583        H588   1.086       .  S
C583        C584   1.367       .  D
C584        C623   1.476       .  S
C589        C590   1.529       .  S
C589        C595   1.508       .  S
C589        C593   1.538       .  S
C589        C658   1.503       .  S
C590        H597   1.087       .  S
C590        C591   1.365       .  D
C591        C592   1.557       .  S
C591        C653   1.496       .  S
C592        C596   1.560       .  S
C592        C594   1.559       .  S
C592        H598   1.107       .  S
C593        H599   1.084       .  S
C593        C594   1.369       .  D
C594        C641   1.492       .  S
C595        H600   1.088       .  S
C595        C596   1.356       .  D
C596        C638   1.485       .  S
C601        C602   1.528       .  S
C601        C607   1.537       .  S
C601        C605   1.531   1_556  S
C601        C650   1.508   1_556  S
C602        H609   1.087       .  S
C602        C603   1.364       .  D
C603        C604   1.556       .  S
C603        C642   1.491       .  S
C604        C608   1.548       .  S
C604        C606   1.539       .  S
C604        H610   1.109       .  S
C605        C606   1.364   1_554  D
C606        C645   1.479       .  S
C607        H612   1.086       .  S
C607        C608   1.369       .  D
C608        C626   1.490       .  S
O613       Cu621   2.014       .  S
O613        C623   1.279       .  A
O614       Cu621   2.012       .  S
O614        C624   1.278       .  A
O615       Cu621   2.013       .  S
O615        C625   1.278       .  A
O616       Cu621   2.014       .  S
O616        C626   1.278       .  A
O617       Cu622   2.044       .  S
O617        C626   1.281       .  A
O618       Cu622   2.020       .  S
O618        C625   1.279       .  A
O619       Cu622   2.022       .  S
O619        C624   1.279       .  A
O620       Cu622   2.007       .  S
O620        C623   1.277       .  A
Cu621      Cu622   2.372       .  S
O627       Cu635   2.014       .  S
O627        C637   1.279       .  A
O629       Cu635   2.024   1_545  S
O629        C639   1.276       .  A
O631        C640   1.282       .  A
O632       Cu636   2.010   1_545  S
O632        C983   1.281       .  A
O633        C638   1.276       .  A
O634       Cu636   2.005       .  S
O634        C981   1.276       .  A
Cu636      Cu979   2.374       .  S
C638        O972   1.281       .  A
C640        O974   1.275       .  A
C641        H643   1.085       .  S
C641        C642   1.342       .  D
C642        H644   1.085       .  S
C645        H647   1.083       .  S
C645        C818   1.351   1_556  D
C646        H648   1.083       .  S
C649        H651   1.086       .  S
C653        H655   1.084       .  S
C653        C654   1.344       .  D
C654        H656   1.085       .  S
C657        H659   1.083       .  S
C658        H660   1.088       .  S
C658       C1001   1.337       .  D
C661        H663   1.085       .  S
C661        C662   1.341       .  D
C662        H664   1.086       .  S
C665        H667   1.084       .  S
C665        C666   1.347       .  D
C666        H668   1.084       .  S
C669        H671   1.084       .  S
C669        C842   1.342   1_556  D
C670        H672   1.083       .  S
C673        H675   1.087       .  S
C677        H679   1.084       .  S
C677        C678   1.342       .  D
C678        H680   1.083       .  S
C681        H683   1.083       .  S
C681       C1026   1.347       .  D
C682        H684   1.087       .  S
C685        H687   1.085       .  S
C685        C686   1.343       .  D
C686        H688   1.085       .  S
C689        C690   1.538       .  S
C689        C695   1.538       .  S
C689        C693   1.539       .  S
C689        C854   1.518       .  S
C690        H697   1.085       .  S
C690        C691   1.373       .  D
C691        C692   1.530       .  S
C691        C857   1.481       .  S
C692        C696   1.533       .  S
C692        C694   1.533       .  S
C692        H698   1.111       .  S
C693        H699   1.083       .  S
C693        C694   1.370       .  D
C694        C850   1.485       .  S
C695        H700   1.086       .  S
C695        C696   1.365       .  D
C696        C809   1.474       .  S
C701        C702   1.538       .  S
C701        C707   1.541       .  S
C701        C705   1.540       .  S
C701        C845   1.526       .  S
C702        H881   1.085   1_554  S
C702        C703   1.370       .  D
C703        C704   1.531       .  S
C703        C842   1.479       .  S
C704        C708   1.528       .  S
C704        C706   1.530       .  S
C704        H710   1.112       .  S
C705        H711   1.085       .  S
C705        C706   1.374       .  D
C706        C858   1.481       .  S
C707        H712   1.084       .  S
C707        C708   1.364       .  D
C708        C797   1.471       .  S
H709        C874   1.084       .  S
C713        C714   1.539       .  S
C713        C719   1.538       .  S
C713        C717   1.538       .  S
C713        C853   1.522       .  S
C714        H721   1.085       .  S
C714        C715   1.375       .  D
C715        C716   1.531       .  S
C715        C837   1.481       .  S
C716        C720   1.534       .  S
C716        C718   1.533       .  S
C716        H722   1.112       .  S
C717        H723   1.083       .  S
C717        C718   1.370       .  D
C718        C849   1.486       .  S
C719        C720   1.365       .  D
C720        C812   1.475       .  S
C725        C726   1.534       .  S
C725        C731   1.537       .  S
C725        C729   1.539       .  S
C725        C846   1.514       .  S
C726        H905   1.084       .  S
C726        C727   1.367       .  D
C727        C728   1.531       .  S
C727        C841   1.481       .  S
C728        C732   1.534       .  S
C728        C730   1.531       .  S
C728        H734   1.112       .  S
C729        H735   1.085       .  S
C729        C730   1.374       .  D
C730        C838   1.480       .  S
C731        H736   1.086       .  S
C731        C732   1.367       .  D
C732        C796   1.476       .  S
H733        C898   1.083       .  S
C737        C738   1.533       .  S
C737        C743   1.531       .  S
C737        C741   1.536       .  S
C737        C829   1.505       .  S
C738        H745   1.083       .  S
C738        C739   1.369       .  D
C739        C740   1.540       .  S
C739        C826   1.490       .  S
C740        C744   1.543       .  S
C740        C742   1.537       .  S
C740        H746   1.111       .  S
C741        H747   1.084       .  S
C741        C742   1.372       .  D
C742        C833   1.481       .  S
C743        H748   1.087       .  S
C743        C744   1.359       .  D
C744        C811   1.476       .  S
C749        C750   1.535       .  S
C749        C755   1.532       .  S
C749        C753   1.528       .  S
C749        C821   1.503       .  S
C750        H757   1.085       .  S
C750        C751   1.372       .  D
C751        C752   1.536       .  S
C751        C834   1.482       .  S
C752        C756   1.544       .  S
C752        C754   1.540       .  S
C752        H758   1.111       .  S
C753        H931   1.085   1_554  S
C753        C754   1.364       .  D
C754        C818   1.481       .  S
C755        H760   1.086       .  S
C755        C756   1.361       .  D
C756        C795   1.477       .  S
H759        C925   1.083       .  S
C761        C762   1.540       .  S
C761        C767   1.540       .  S
C761        C765   1.537       .  S
C761        C830   1.517       .  S
C762        H769   1.085       .  S
C762        C763   1.368       .  D
C763        C764   1.536       .  S
C763        C825   1.485       .  S
C764        C768   1.537       .  S
C764        C766   1.534       .  S
C764        H770   1.111       .  S
C765        H771   1.085       .  S
C765        C766   1.372       .  D
C766        C813   1.485       .  S
C767        H772   1.085   1_655  S
C767        C768   1.362       .  D
C768        C810   1.476       .  S
C773        C774   1.539       .  S
C773        C779   1.538       .  S
C773        C777   1.530       .  S
C773        C822   1.514       .  S
C774        H781   1.085       .  S
C774        C775   1.374       .  D
C775        C776   1.536       .  S
C775        C814   1.486       .  S
C776        C780   1.536       .  S
C776        C778   1.535       .  S
C776        H782   1.111       .  S
C777        H955   1.085       .  S
C777        C778   1.366       .  D
C778        C817   1.476       .  S
C779        H784   1.083       .  S
C779        C780   1.356       .  D
C780        C798   1.471       .  S
H783        C949   1.084       .  S
O785       Cu793   2.009       .  S
O785        C795   1.275       .  A
O786       Cu793   2.004       .  S
O786        C796   1.276       .  A
O787       Cu793   2.015       .  S
O787        C797   1.279       .  A
O788       Cu793   2.002       .  S
O788        C798   1.280       .  A
O789       Cu794   1.999       .  S
O789        C798   1.274       .  A
O790       Cu794   1.985       .  S
O790        C797   1.275       .  A
O791       Cu794   2.019       .  S
O791        C796   1.279       .  A
O792       Cu794   2.012       .  S
O792        C795   1.281       .  A
Cu793      Cu794   2.375       .  S
O799       Cu807   2.003       .  S
O799        C809   1.277       .  A
O800       Cu979   2.014   1_545  S
O801       Cu807   1.996   1_545  S
O801        C811   1.273       .  A
O802       Cu979   1.985       .  S
O803       Cu980   2.011       .  S
O803        C812   1.278       .  A
O804       Cu808   2.020   1_545  S
O805       Cu980   1.996   1_545  S
O805        C810   1.275       .  A
O806       Cu808   2.004       .  S
Cu807       O972   1.991   1_564  S
Cu807       O974   1.999   1_554  S
Cu808       O975   2.035   1_554  S
Cu808       O977   2.027   1_564  S
C813        H815   1.084       .  S
C813        C814   1.344       .  D
C814        H816   1.084       .  S
C817        H819   1.084       .  S
C818        H820   1.083       .  S
C821        H823   1.087   1_554  S
C821        C994   1.338       .  D
C822        H996   1.087       .  S
C822        C993   1.340       .  D
H824        C994   1.086       .  S
C825        H827   1.082       .  S
C825        C826   1.348       .  D
C826        H828   1.084       .  S
C829        H831   1.082       .  S
C830        H832   1.087       .  S
C833        H835   1.084       .  S
C833        C834   1.344       .  D
C834        H836   1.084       .  S
C837        H839   1.085       .  S
C837        C838   1.340       .  D
C838        H840   1.085       .  S
C841        H843   1.083   1_655  S
C842        H844   1.083       .  S
C845        H847   1.087   1_554  S
C845       C1018   1.348       .  D
C846       H1020   1.085       .  S
C846       C1017   1.344       .  D
H848       C1018   1.083       .  S
C849        H851   1.082       .  S
C849        C850   1.345       .  D
C850        H852   1.082       .  S
C853        H855   1.086       .  S
C854        H856   1.086       .  S
C857        H859   1.085       .  S
C857        C858   1.340       .  D
C858        H860   1.085       .  S
C861        C862   1.542       .  S
C861        C867   1.548       .  S
C861        C865   1.538       .  S
C861       C1026   1.532       .  S
C862        H869   1.085       .  S
C862        C863   1.375       .  D
C863        C864   1.532       .  S
C863       C1029   1.487       .  S
C864        C868   1.530       .  S
C864        C866   1.531       .  S
C864        H870   1.111       .  S
C865        H871   1.085       .  S
C865        C866   1.369       .  D
C866       C1022   1.481       .  S
C867        H872   1.083       .  S
C867        C868   1.368       .  D
C868        C981   1.480       .  S
C873        C874   1.536       .  S
C873        C879   1.543       .  S
C873        C877   1.540       .  S
C873       C1017   1.522       .  S
C874        C875   1.368       .  D
C875        C876   1.531       .  S
C875       C1014   1.479       .  S
C876        C880   1.533       .  S
C876        C878   1.533       .  S
C876        H882   1.111       .  S
C877        H883   1.085       .  S
C877        C878   1.374       .  D
C878       C1030   1.487       .  S
C879        H884   1.085       .  S
C879        C880   1.362       .  D
C880        C969   1.474       .  S
C885        C886   1.538       .  S
C885        C891   1.535       .  S
C885        C889   1.537       .  S
C885       C1025   1.522       .  S
C886        H893   1.085       .  S
C886        C887   1.373       .  D
C887        C888   1.537       .  S
C887       C1009   1.488       .  S
C888        C892   1.539       .  S
C888        C890   1.534       .  S
C888        H894   1.111       .  S
C889        H895   1.083       .  S
C889        C890   1.372       .  D
C890       C1021   1.484       .  S
C891        C892   1.367       .  D
C892        C984   1.482       .  S
C897        C898   1.540   1_556  S
C897        C903   1.534       .  S
C897        C901   1.540       .  S
C897       C1018   1.516   1_556  S
C898        C899   1.370   1_554  D
C899        C900   1.531       .  S
C899       C1013   1.485       .  S
C900        C904   1.539       .  S
C900        C902   1.537       .  S
C900        H906   1.112       .  S
C901        H907   1.085       .  S
C901        C902   1.373       .  D
C902       C1010   1.487       .  S
C903        H908   1.086       .  S
C903        C904   1.364       .  D
C904        C968   1.477       .  S
C909        C910   1.544       .  S
C909        C915   1.528       .  S
C909        C913   1.522       .  S
C909       C1001   1.506       .  S
C910        H917   1.085       .  S
C910        C911   1.375       .  D
C911        C912   1.542       .  S
C911        C998   1.496       .  S
C912        C916   1.547       .  S
C912        C914   1.537       .  S
C912        H918   1.111       .  S
C913        H919   1.085       .  S
C913        C914   1.366       .  D
C914       C1005   1.475       .  S
C915        H920   1.087       .  S
C915        C916   1.357       .  D
C916        C983   1.476       .  S
C921        C922   1.530       .  S
C921        C927   1.535       .  S
C921        C925   1.532       .  S
C921        C993   1.500       .  S
C922        H929   1.085       .  S
C922        C923   1.365       .  D
C923        C924   1.535       .  S
C923       C1006   1.467       .  S
C924        C928   1.537       .  S
C924        C926   1.534       .  S
C924        H930   1.112       .  S
C925        C926   1.365       .  D
C926        C990   1.485       .  S
C927        H932   1.086       .  S
C927        C928   1.367       .  D
C928        C967   1.475       .  S
C933        C934   1.541       .  S
C933        C939   1.515       .  S
C933        C937   1.538       .  S
C933       C1002   1.510       .  S
C934        H941   1.084       .  S
C934        C935   1.376       .  D
C935        C936   1.545       .  S
C935        C997   1.500       .  S
C936        C940   1.552       .  S
C936        C938   1.553       .  S
C936        H942   1.110       .  S
C937        H943   1.083       .  S
C937        C938   1.364       .  D
C938        C985   1.486       .  S
C939        H944   1.088   1_655  S
C939        C940   1.356       .  D
C940        C982   1.480       .  S
C945        C946   1.528       .  S
C945        C951   1.532       .  S
C945        C949   1.531   1_556  S
C945        C994   1.502   1_556  S
C946        H953   1.087       .  S
C946        C947   1.362       .  D
C947        C948   1.552       .  S
C947        C986   1.485       .  S
C948        C952   1.545       .  S
C948        C950   1.536       .  S
C948        H954   1.110       .  S
C949        C950   1.367   1_554  D
C950        C989   1.475       .  S
C951        H956   1.087       .  S
C951        C952   1.364       .  D
C952        C970   1.479       .  S
O957       Cu965   2.017       .  S
O957        C967   1.279       .  A
O958       Cu965   2.011       .  S
O958        C968   1.278       .  A
O959       Cu965   2.004       .  S
O959        C969   1.276       .  A
O960       Cu965   1.999       .  S
O960        C970   1.277       .  A
O961       Cu966   2.031       .  S
O961        C970   1.279       .  A
O962       Cu966   2.011       .  S
O962        C969   1.278       .  A
O963       Cu966   2.015       .  S
O963        C968   1.278       .  A
O964       Cu966   2.003       .  S
O964        C967   1.277       .  A
Cu965      Cu966   2.374       .  S
O971       Cu979   2.022       .  S
O971        C981   1.280       .  A
O973       Cu979   2.002   1_545  S
O973        C983   1.273       .  A
O975        C984   1.281       .  A
O976       Cu980   2.006   1_545  S
O977        C982   1.276       .  A
O978       Cu980   1.996       .  S
C985        H987   1.086       .  S
C985        C986   1.341       .  D
C986        H988   1.086       .  S
C989        H991   1.083       .  S
C990        H992   1.083       .  S
C993        H995   1.082       .  S
C997        H999   1.084       .  S
C997        C998   1.352       .  D
C998       H1000   1.083       .  S
C1001      H1003   1.082       .  S
C1002      H1004   1.087       .  S
C1005      H1007   1.085       .  S
C1005      C1006   1.344       .  D
C1006      H1008   1.084       .  S
C1009      H1011   1.085       .  S
C1009      C1010   1.346       .  D
C1010      H1012   1.085       .  S
C1013      H1015   1.083       .  S
C1014      H1016   1.083       .  S
C1017      H1019   1.087       .  S
C1021      H1023   1.084       .  S
C1021      C1022   1.343       .  D
C1022      H1024   1.083       .  S
C1025      H1027   1.086       .  S
C1026      H1028   1.087       .  S
C1029      H1031   1.085       .  S
C1029      C1030   1.342       .  D
C1030      H1032   1.085       .  S
