geometry optimzed in LAMMPS
_audit_creation_date              2020-11-30 
_audit_creation_method            'lammps2cif' 
_symmetry_space_group_name_H-M    'P1' 
_symmetry_Int_Tables_number       1 
_symmetry_cell_setting            triclinic 
loop_ 
_symmetry_equiv_pos_as_xyz 
  x,y,z 
_cell_length_a                    22.67789319 
_cell_length_b                    59.8643943523019 
_cell_length_c                    27.162633565333586 
_cell_angle_alpha                 89.96679630813567 
_cell_angle_beta                  82.19294944182025 
_cell_angle_gamma                 90.13838162359168 
loop_ 
_atom_site_label 
_atom_site_type_symbol 
_atom_site_fract_x 
_atom_site_fract_y 
_atom_site_fract_z 
_atom_site_charge 
C1          C  0.09954590  0.32345799  0.49770752     0.80500
N2          N  0.06472633  0.34177824  0.49834489    -0.77800
C3          C  0.08989688  0.36248392  0.49381754     0.82900
N4          N  0.15064674  0.36489971  0.48923846    -0.77800
C5          C  0.18535014  0.34624675  0.48882846     0.83000
N6          N  0.15897587  0.32588726  0.49329199    -0.79500
C7          C  0.09722329  0.50223205  0.51796766     0.80500
N8          N  0.15621954  0.49958334  0.51754369    -0.77800
C9          C  0.18249060  0.47929335  0.51126144     0.82900
N10         N  0.14813558  0.46088408  0.50628039    -0.77800
C11         C  0.08786233  0.46343820  0.50739219     0.83000
N12         N  0.06294487  0.48412842  0.51232039    -0.79500
C13         C  0.33372197  0.50228001  0.49583099     0.80500
N14         N  0.36888094  0.48404787  0.49548670    -0.77800
C15         C  0.34400562  0.46327964  0.49997960     0.82900
N16         N  0.28326029  0.46076792  0.50514401    -0.77800
C17         C  0.24829248  0.47935356  0.50569191     0.83000
N18         N  0.27432016  0.49974419  0.50096224    -0.79500
O19         O  0.52159681  0.43560882  0.54066448    -0.72700
O20         O  0.39737948  0.38791555  0.53381010    -0.73700
O21         O  0.52283805  0.38805977  0.53483386    -0.62300
O22         O  0.39581882  0.43543640  0.53933809    -0.70700
O23         O  0.41168692  0.43758700  0.45696275    -0.70300
O24         O  0.53830818  0.39012311  0.45243737    -0.61500
O25         O  0.41230996  0.38992324  0.45139822    -0.74000
O26         O  0.53712809  0.43766738  0.45825989    -0.72800
Cu27       Cu  0.45894207  0.41169075  0.54002127     1.04600
Cu28       Cu  0.47532914  0.41388733  0.45186850     1.04300
C29         C  0.04813276  0.44433212  0.50403129     0.93500
C30         C  0.38566006  0.38132737  0.49149206     0.92600
C31         C  0.04975128  0.38171643  0.49564327     0.84800
C32         C  0.38429199  0.44408387  0.49870314     0.91100
C33         C  0.33545288  0.32309925  0.48455734     0.80500
N34         N  0.27682692  0.32580243  0.48310435    -0.77800
C35         C  0.25109474  0.34622045  0.48540539     0.82900
N36         N  0.28576506  0.36474693  0.48823275    -0.77800
C37         C  0.34581062  0.36215434  0.48884863     0.83000
N38         N  0.37006208  0.34132675  0.48810421    -0.79500
C39         C  0.45512272  0.13935551  0.57174788     0.86700
C40         C  0.50873908  0.15484743  0.55469829    -0.53500
C41         C  0.50563357  0.16552662  0.51030320     0.09700
C42         C  0.45108305  0.15834373  0.48609126     0.20600
C43         C  0.40064538  0.15451833  0.57037655    -0.54200
C44         C  0.39903689  0.16487310  0.52563299     0.09800
C45         C  0.45403259  0.12292791  0.52914968    -0.53800
C46         C  0.45219174  0.13262230  0.48416655     0.10300
H47         H  0.04168924  0.15951897  0.58657603     0.14900
H48         H  0.44804963  0.16618240  0.44956150     0.00600
H49         H  0.37162108  0.15934807  0.60380918     0.15200
H50         H  0.45593188  0.10497301  0.53436879     0.14900
C51         C  0.44499239  0.68880818  0.56837972     0.86700
C52         C  0.39050431  0.67342737  0.56774517    -0.53500
C53         C  0.39189093  0.66077112  0.52562979     0.09700
C54         C  0.44613658  0.66589012  0.48692321     0.20600
C55         C  0.49880463  0.67302002  0.55733898    -0.54200
C56         C  0.49870597  0.66028235  0.51527279     0.09800
C57         C  0.44659095  0.70320568  0.52172661    -0.53800
C58         C  0.44733432  0.69131610  0.47912541     0.10300
H59         H  0.35874924  0.67030617  0.60072722     0.14900
H60         H  0.44623484  0.65690486  0.45135529     0.00600
H61         H  0.02982058  0.67014875  0.59174443     0.15200
H62         H  0.44534558  0.72123842  0.52167110     0.14900
N63         N  0.50766952  0.03908257  0.09267337    -0.27000
N64         N  0.48999563  0.02142429  0.11999622    -0.34900
C65         C  0.48156939  0.02748691  0.16812734     0.01300
C66         C  0.49449642  0.05007025  0.17100536     0.07300
C67         C  0.51087479  0.05682620  0.12242662    -0.05800
H68         H  0.46611495  0.01634045  0.19853220     0.08000
H69         H  0.52284531  0.07352313  0.10941390     0.09200
Cu70       Cu  0.47567273  0.99032469  0.08961991     0.44200
Cu71       Cu  0.52163337  0.03894277  0.01616464     0.42000
Cu72       Cu  0.46582408  0.99119349  0.95647625     0.43900
N73         N  0.46141064  0.96206741  0.04823680    -0.34400
N74         N  0.45743493  0.96241312  0.00007781    -0.28700
C75         C  0.44894786  0.94142148  0.98468628    -0.04800
C76         C  0.44753011  0.92719517  0.02500007     0.07400
C77         C  0.45556841  0.94084973  0.06466760     0.01200
H78         H  0.44491660  0.93685015  0.94677304     0.08900
H79         H  0.45759285  0.93575207  0.10260407     0.08000
N80         N  0.48487401  0.02173129  0.92093317    -0.35900
N81         N  0.50845818  0.03867214  0.94266501    -0.28100
C82         C  0.51686916  0.05591334  0.91088244    -0.03300
C83         C  0.49680282  0.04973735  0.86714962     0.05300
C84         C  0.47654961  0.02797223  0.87469190     0.03400
H85         H  0.53391238  0.07209322  0.91980443     0.08500
H86         H  0.45740555  0.01746758  0.84856572     0.07300
N87         N  0.43378013  0.78808006  0.10012996    -0.27000
N88         N  0.44150069  0.80703715  0.12335871    -0.34900
C89         C  0.44830370  0.80252011  0.17070760     0.01300
C90         C  0.44406432  0.77965406  0.17762123     0.07300
C91         C  0.43479264  0.77100423  0.13213157    -0.05800
H92         H  0.45522890  0.81500425  0.19814165     0.08000
H93         H  0.43005681  0.75360346  0.12265347     0.09200
Cu94       Cu  0.44163289  0.83818138  0.09001515     0.44200
Cu95       Cu  0.42457216  0.78616391  0.02578302     0.42000
Cu96       Cu  0.42813627  0.83875845  0.95893506     0.43900
N97         N  0.43939823  0.86725122  0.04882468    -0.34400
N98         N  0.43437114  0.86754184  0.00089667    -0.28700
C99         C  0.43552613  0.88889486  0.98518758    -0.04800
C100        C  0.44157532  0.90265997  0.02517143     0.07400
C101        C  0.44380115  0.88836419  0.06490061     0.01200
H102        H  0.43294527  0.89397663  0.94732912     0.08900
H103        H  0.44903692  0.89291263  0.10259272     0.08000
N104        N  0.42688842  0.80754670  0.92537122    -0.35900
N105        N  0.42535986  0.78844465  0.94995612    -0.28100
C106        C  0.42613859  0.77139620  0.91770662    -0.03300
C107        C  0.42826865  0.78016047  0.87039299     0.05300
C108        C  0.42870478  0.80312354  0.87666343     0.03400
H109        H  0.42590810  0.75394787  0.92808847     0.08500
H110        H  0.43071683  0.81573151  0.84792054     0.07300
C111        C  0.43729787  0.71267493  0.70248186     0.16200
C112        C  0.43244166  0.71591357  0.75403748    -0.32800
C113        C  0.43304613  0.73800770  0.77138220     0.20600
C114        C  0.43823040  0.75599536  0.73889247     0.02800
C115        C  0.94356952  0.75266559  0.69560888    -0.22600
C116        C  0.44235411  0.73072608  0.67031882     0.12000
S117        S  0.43748324  0.68736349  0.67345024    -0.06200
C118        C  0.44372394  0.70128664  0.61717682    -0.09700
C119        C  0.44622624  0.72440817  0.62172780    -0.26300
S120        S  0.93880495  0.78143560  0.77477432    -0.03500
C121        C  0.43120290  0.76786592  0.82315145    -0.17000
C122        C  0.42899252  0.74472852  0.81995674    -0.14900
H123        H  0.42838411  0.70187306  0.77945333     0.20400
H124        H  0.94746697  0.76669024  0.67014829     0.16500
H125        H  0.95103945  0.73628194  0.59990025     0.19000
H126        H  0.42466857  0.73341022  0.85135081     0.12300
C127        C  0.43379827  0.71397358  0.34856192     0.16200
C128        C  0.42087128  0.71782260  0.30025955    -0.32800
C129        C  0.43718089  0.73860691  0.27857378     0.20600
C130        C  0.46489307  0.75482368  0.30385520     0.02800
C131        C  0.97569234  0.75104568  0.36054368    -0.22600
C132        C  0.46174895  0.73021426  0.37351046     0.12000
S133        S  0.41708599  0.69006533  0.38201964    -0.06200
C134        C  0.44758586  0.70224600  0.43024020    -0.10600
C135        C  0.46997618  0.72358305  0.42013097    -0.26300
S136        S  0.97752232  0.77919787  0.28050914    -0.03500
C137        C  0.44876077  0.76732496  0.22368103    -0.17000
C138        C  0.42812489  0.74565641  0.23223926    -0.14900
H139        H  0.39884935  0.70525170  0.28058603     0.20400
H140        H  0.99687274  0.76375665  0.38050148     0.16500
H141        H  0.98918440  0.73395595  0.45403321     0.19000
H142        H  0.40678471  0.73574159  0.20635910     0.12300
C143        C  0.50857247  0.09198962  0.76032880     0.16200
C144        C  0.52564700  0.10891751  0.72564718    -0.32800
C145        C  0.48855083  0.11307162  0.68940332     0.20600
C146        C  0.43614567  0.10124849  0.68841136     0.02800
C147        C  0.41916550  0.08421410  0.72293714    -0.22600
C148        C  0.45702955  0.07968082  0.75844318     0.12000
S149        S  0.54746154  0.08451121  0.80720736    -0.06200
C150        C  0.49464653  0.06416707  0.82365090    -0.09700
C151        C  0.44916235  0.06343531  0.79439877    -0.26300
S152        S  0.39799260  0.10855841  0.64101059    -0.03500
C153        C  0.45442101  0.12721214  0.62081358    -0.17000
C154        C  0.49931271  0.12800013  0.65093651    -0.14900
H155        H  0.06440167  0.11861728  0.73557127     0.20400
H156        H  0.37877968  0.07468559  0.72166330     0.16500
H157        H  0.41175312  0.05201784  0.79990785     0.19000
H158        H  0.03772000  0.13863166  0.65353270     0.12300
C159        C  0.45364541  0.09034550  0.37748409     0.16200
C160        C  0.45204463  0.07110299  0.34851359    -0.32800
C161        C  0.46864086  0.07322711  0.29720421     0.20600
C162        C  0.48586915  0.09361816  0.27556906     0.02800
C163        C  0.98705181  0.11291211  0.31268325    -0.22600
C164        C  0.47096133  0.11076829  0.35608610     0.12000
S165        S  0.43663611  0.09097913  0.44036021    -0.06200
C166        C  0.45333862  0.11913742  0.43831983    -0.09700
C167        C  0.47070792  0.12741072  0.39080789    -0.26300
S168        S  0.50439886  0.09257251  0.21260747    -0.03500
C169        C  0.48892993  0.06433370  0.21558127    -0.17000
C170        C  0.47033335  0.05637480  0.26304776    -0.14900
H171        H  0.43882006  0.05512724  0.36529790     0.20400
H172        H  0.00002048  0.12889436  0.29582468     0.16500
H173        H  0.98372595  0.14454670  0.38983433     0.19000
H174        H  0.45858359  0.03919030  0.27223744     0.12300
C175        C  0.38585652  0.26495847  0.51759852     0.16200
C176        C  0.40315563  0.24623351  0.54304178    -0.32800
C177        C  0.38308550  0.22522149  0.52938183     0.20600
C178        C  0.34880497  0.22280119  0.49118402     0.02800
C179        C  0.33075215  0.24153344  0.46625657    -0.22600
C180        C  0.34969450  0.26257435  0.48067111     0.12000
S181        S  0.40237037  0.29207510  0.53047428    -0.06200
C182        C  0.35817376  0.30023384  0.48696501    -0.09700
C183        C  0.33372665  0.28273630  0.46303156    -0.26300
S184        S  0.33497730  0.19568218  0.47652278    -0.03500
C185        C  0.37431180  0.18754318  0.52334111    -0.17000
C186        C  0.39661284  0.20507841  0.54869530    -0.14900
H187        H  0.43080821  0.24796032  0.57234014     0.20400
H188        H  0.30321908  0.23979685  0.43686747     0.16500
H189        H  0.30292806  0.28472970  0.43614894     0.19000
H190        H  0.42566111  0.20309567  0.57691419     0.12300
C191        C  0.36444321  0.59851820  0.54417638     0.16200
C192        C  0.36853071  0.57642077  0.56026440    -0.32800
C193        C  0.36569489  0.55942702  0.52523785     0.20600
C194        C  0.35862786  0.56419731  0.47643333     0.02800
C195        C  0.35477438  0.58632469  0.46028233    -0.22600
C196        C  0.35786956  0.60333428  0.49531443     0.12000
S197        S  0.37154336  0.62141926  0.58004987    -0.06200
C198        C  0.36745042  0.63780690  0.52833808    -0.09700
C199        C  0.35879596  0.62585927  0.48615397    -0.26300
S200        S  0.35083058  0.54118077  0.44090493    -0.03500
C201        C  0.35750565  0.52498420  0.49223679    -0.17000
C202        C  0.36557277  0.53692750  0.53440748    -0.14900
H203        H  0.37396748  0.57264355  0.59836685     0.20400
H204        H  0.34956794  0.59010989  0.42213706     0.16500
H205        H  0.35851285  0.63314828  0.44969311     0.19000
H206        H  0.36604616  0.52960707  0.57082083     0.12300
C207        C  0.03802630  0.56081478  0.49956557     0.16200
C208        C  0.01505464  0.58015960  0.48042455    -0.32800
C209        C  0.03082443  0.60076726  0.49954090     0.20600
C210        C  0.06742643  0.60216071  0.53622008     0.02800
C211        C  0.09172967  0.58285723  0.55449628    -0.22600
C212        C  0.07620608  0.56224304  0.53521157     0.12000
S213        S  0.02500611  0.53419079  0.48083052    -0.06200
C214        C  0.07312899  0.52499183  0.52025209    -0.09700
C215        C  0.09668355  0.54173907  0.54702234    -0.26300
S216        S  0.07564526  0.62858815  0.55802732    -0.03500
C217        C  0.02817042  0.63795424  0.51781707    -0.17000
C218        C  0.51082451  0.62123922  0.47986721    -0.14900
H219        H  0.48719495  0.57915728  0.44433101     0.20400
H220        H  0.12076994  0.58382409  0.58294501     0.16500
H221        H  0.12904617  0.53908872  0.57231780     0.19000
H222        H  0.48058147  0.62316772  0.45277086     0.12300
C223        C  0.04716860  0.22562524  0.47693289     0.16200
C224        C  0.04790362  0.24671811  0.45419996    -0.32800
C225        C  0.05785721  0.26541114  0.48323390     0.20600
C226        C  0.06686698  0.26312082  0.53246920     0.02800
C227        C  0.06676980  0.24209253  0.55484706    -0.22600
C228        C  0.05681850  0.22348109  0.52595253     0.12000
S229        S  0.52642750  0.20169762  0.44379582    -0.06200
C230        C  0.03437303  0.18783086  0.50619978    -0.09700
C231        C  0.05091595  0.20193426  0.54255594    -0.26300
S232        S  0.08096452  0.28747417  0.56100589    -0.03500
C233        C  0.07486121  0.30102183  0.50616594    -0.17000
C234        C  0.06240258  0.28727236  0.46783076    -0.14900
H235        H  0.53533872  0.24950382  0.41206905     0.20400
H236        H  0.07365641  0.24032728  0.59331089     0.16500
H237        H  0.05257510  0.19730874  0.58083604     0.19000
H238        H  0.06068453  0.29277615  0.43007847     0.12300
C239        C  0.60032028  0.32332812  0.49549821     0.80500
N240        N  0.56539159  0.34158926  0.49526806    -0.77800
C241        C  0.59035539  0.36235063  0.49166338     0.82900
N242        N  0.65096387  0.36486940  0.48875742    -0.77800
C243        C  0.68574815  0.34626932  0.48905791     0.83000
N244        N  0.65957030  0.32587628  0.49273186    -0.79500
C245        C  0.59730102  0.50229240  0.51295754     0.80500
N246        N  0.65584261  0.49961226  0.51487018    -0.77800
C247        C  0.68205209  0.47927352  0.51060393     0.82900
N248        N  0.64797079  0.46080997  0.50540598    -0.77800
C249        C  0.58807675  0.46338580  0.50410662     0.83000
N250        N  0.56330557  0.48413733  0.50701237    -0.79500
C251        C  0.83281672  0.50234454  0.50206401     0.80500
N252        N  0.86795214  0.48412752  0.50203649    -0.77800
C253        C  0.84321817  0.46332446  0.50473847     0.82900
N254        N  0.78263064  0.46075032  0.50760403    -0.77800
C255        C  0.74766555  0.47933041  0.50794486     0.83000
N256        N  0.77359259  0.49975306  0.50501031    -0.79500
O257        O  0.02145855  0.43568162  0.54399016    -0.72700
O258        O  0.89743863  0.38796865  0.53740491    -0.73700
O259        O  0.02289907  0.38816212  0.53763468    -0.62300
O260        O  0.89563423  0.43546485  0.54345213    -0.70700
O261        O  0.91073630  0.43778748  0.46108194    -0.70300
O262        O  0.03754025  0.39036525  0.45524042    -0.61500
O263        O  0.91137462  0.39021326  0.45500623    -0.74000
O264        O  0.03645340  0.43785764  0.46158713    -0.72800
Cu265      Cu  0.95891662  0.41175193  0.54347961     1.04600
Cu266      Cu  0.97447647  0.41412983  0.45532942     1.04300
C267        C  0.54848771  0.44422337  0.50073852     0.93500
C268        C  0.88522198  0.38150541  0.49515066     0.92600
C269        C  0.55009407  0.38154413  0.49304291     0.84800
C270        C  0.88362768  0.44416536  0.50302007     0.91100
C271        C  0.83527188  0.32323065  0.48948762     0.80500
N272        N  0.77696725  0.32588772  0.48651875    -0.77800
C273        C  0.75129171  0.34629752  0.48746878     0.82900
N274        N  0.78575863  0.36486912  0.49037027    -0.77800
C275        C  0.84550005  0.36231082  0.49260388     0.83000
N276        N  0.86963859  0.34150083  0.49322467    -0.79500
C277        C  0.95482035  0.13972297  0.57986325     0.86700
C278        C  0.00858923  0.15518181  0.56302988    -0.53500
C279        C  0.00601894  0.16570331  0.51837173     0.09700
C280        C  0.95173213  0.15850291  0.49385168     0.20600
C281        C  0.90048099  0.15489025  0.57792417    -0.54200
C282        C  0.89939019  0.16514675  0.53300955     0.09800
C283        C  0.95414649  0.12319698  0.53737699    -0.53800
C284        C  0.95278451  0.13277782  0.49220915     0.10300
H285        H  0.54216159  0.15906685  0.57800531     0.14900
H286        H  0.94907826  0.16629379  0.45721467     0.00600
H287        H  0.87116238  0.15980235  0.61112901     0.15200
H288        H  0.95593220  0.10525537  0.54283570     0.14900
C289        C  0.94504320  0.68869319  0.57660818     0.86700
C290        C  0.89054839  0.67328817  0.57627783    -0.53500
C291        C  0.89158689  0.66067348  0.53414090     0.09700
C292        C  0.94553373  0.66582669  0.49515868     0.20600
C293        C  0.99885807  0.67292660  0.56521190    -0.54200
C294        C  0.99841355  0.66020930  0.52315501     0.09800
C295        C  0.94615821  0.70311080  0.53003330    -0.53800
C296        C  0.94657856  0.69125377  0.48742948     0.10300
H297        H  0.85907063  0.67012537  0.60941049     0.14900
H298        H  0.94532622  0.65686478  0.45959879     0.00600
H299        H  0.52953080  0.67026355  0.58407325     0.15200
H300        H  0.94476643  0.72113894  0.53005334     0.14900
N301        N  0.00610507  0.03910564  0.10081661    -0.27000
N302        N  0.98881086  0.02141845  0.12817069    -0.34900
C303        C  0.98077967  0.02744979  0.17632730     0.01300
C304        C  0.99356261  0.05004631  0.17918423     0.07300
C305        C  0.00944149  0.05683995  0.13056832    -0.05800
H306        H  0.96569119  0.01627432  0.20676924     0.08000
H307        H  0.02119112  0.07355300  0.11753998     0.09200
Cu308      Cu  0.97450377  0.99033473  0.09773924     0.44200
Cu309      Cu  0.01943253  0.03898689  0.02430105     0.42000
Cu310      Cu  0.96379775  0.99121341  0.96459229     0.43900
N311        N  0.96034398  0.96207819  0.05633614    -0.34400
N312        N  0.95609592  0.96241365  0.00821921    -0.28700
C313        C  0.94782643  0.94139938  0.99285842    -0.04800
C314        C  0.94682119  0.92717547  0.03314513     0.07400
C315        C  0.95487744  0.94085274  0.07276370     0.01200
H316        H  0.94363679  0.93681230  0.95498386     0.08900
H317        H  0.95718691  0.93576602  0.11066391     0.08000
N318        N  0.98235217  0.02181788  0.92911389    -0.35900
N319        N  0.00587566  0.03875949  0.95089113    -0.28100
C320        C  0.01410850  0.05603635  0.91920368    -0.03300
C321        C  0.99399889  0.04989590  0.87546852     0.05300
C322        C  0.97389064  0.02810181  0.88291697     0.03400
H323        H  0.03115521  0.07220893  0.92817378     0.08500
H324        H  0.95483906  0.01759867  0.85673530     0.07300
N325        N  0.93307117  0.78801695  0.10830378    -0.27000
N326        N  0.94056031  0.80698015  0.13158806    -0.34900
C327        C  0.94691805  0.80247211  0.17902860     0.01300
C328        C  0.94264127  0.77960766  0.18594980     0.07300
C329        C  0.93380549  0.77094557  0.14036243    -0.05800
H330        H  0.95359906  0.81496338  0.20651437     0.08000
H331        H  0.92918701  0.75354164  0.13086084     0.09200
Cu332      Cu  0.94104489  0.83813966  0.09824670     0.44200
Cu333      Cu  0.92453354  0.78609459  0.03382689     0.42000
Cu334      Cu  0.92861602  0.83870825  0.96702927     0.43900
N335        N  0.93907680  0.86722235  0.05703316    -0.34400
N336        N  0.93439804  0.86749607  0.00904264    -0.28700
C337        C  0.93549848  0.88884282  0.99330792    -0.04800
C338        C  0.94116622  0.90262861  0.03333162     0.07400
C339        C  0.94322384  0.88834754  0.07312221     0.01200
H340        H  0.93312230  0.89390726  0.95540634     0.08900
H341        H  0.94811054  0.89291662  0.11087359     0.08000
N342        N  0.92744275  0.80751830  0.93339013    -0.35900
N343        N  0.92572230  0.78841020  0.95796430    -0.28100
C344        C  0.92653117  0.77137338  0.92568988    -0.03300
C345        C  0.92888077  0.78015033  0.87837122     0.05300
C346        C  0.92941530  0.80311084  0.88466031     0.03400
H347        H  0.92613298  0.75392257  0.93606720     0.08500
H348        H  0.93156918  0.81572596  0.85592345     0.07300
C349        C  0.93799824  0.71260726  0.71060843     0.16200
C350        C  0.93320577  0.71587300  0.76214643    -0.32800
C351        C  0.93375246  0.73797704  0.77943018     0.20600
C352        C  0.93884967  0.75595166  0.74690576     0.02800
C353        C  0.44299992  0.75273626  0.68758189    -0.22600
C354        C  0.94295269  0.73064410  0.67840952     0.12000
S355        S  0.93813454  0.68727949  0.68164710    -0.06200
C356        C  0.94413976  0.70117870  0.62535821    -0.09700
C357        C  0.94669184  0.72430314  0.62985276    -0.26300
S358        S  0.43825417  0.78146403  0.76681138    -0.03500
C359        C  0.93183646  0.76785523  0.83113474    -0.17000
C360        C  0.92969929  0.74471722  0.82798094    -0.14900
H361        H  0.92920667  0.70184572  0.78759800     0.20400
H362        H  0.44698873  0.76677377  0.66215645     0.16500
H363        H  0.45065918  0.73639238  0.59178312     0.19000
H364        H  0.92543192  0.73340844  0.85938997     0.12300
C365        C  0.93235282  0.71394575  0.35697323     0.16200
C366        C  0.91955966  0.71775393  0.30860932    -0.32800
C367        C  0.93554462  0.73858377  0.28699450     0.20600
C368        C  0.96275104  0.75488576  0.31242974     0.02800
C369        C  0.47801915  0.75093492  0.35190452    -0.22600
C370        C  0.95982284  0.73027406  0.38204710     0.12000
S371        S  0.91622109  0.68996326  0.39031088    -0.06200
C372        C  0.94637580  0.70222583  0.43862578    -0.10600
C373        C  0.96818300  0.72365164  0.42863350    -0.26300
S374        S  0.47985796  0.77911742  0.27188321    -0.03500
C375        C  0.94705540  0.76730455  0.23209619    -0.17000
C376        C  0.92673080  0.74558886  0.24056096    -0.14900
H377        H  0.89796841  0.70510683  0.28880965     0.20400
H378        H  0.49954131  0.76358497  0.37176809     0.16500
H379        H  0.49118998  0.73382427  0.44551181     0.19000
H380        H  0.90583130  0.73560299  0.21452847     0.12300
C381        C  0.00637612  0.09229316  0.76888522     0.16200
C382        C  0.02366888  0.10928455  0.73441417    -0.32800
C383        C  0.98692659  0.11348191  0.69793609     0.20600
C384        C  0.93461785  0.10164508  0.69654552     0.02800
C385        C  0.91742301  0.08454315  0.73086030    -0.22600
C386        C  0.95496494  0.07995943  0.76658929     0.12000
S387        S  0.04485795  0.08476241  0.81597005    -0.06200
C388        C  0.99207327  0.06435983  0.83197071    -0.09700
C389        C  0.94688675  0.06364471  0.80240499    -0.26300
S390        S  0.89693354  0.10899921  0.64889066    -0.03500
C391        C  0.95350389  0.12765658  0.62907912    -0.17000
C392        C  0.99802995  0.12844326  0.65954967    -0.14900
H393        H  0.56645658  0.11824182  0.72648554     0.20400
H394        H  0.87713621  0.07499797  0.72924968     0.16500
H395        H  0.90952928  0.05219763  0.80760789     0.19000
H396        H  0.53898056  0.13819075  0.64468071     0.12300
C397        C  0.95502314  0.09027319  0.38579856     0.16200
C398        C  0.95356039  0.07099216  0.35691601    -0.32800
C399        C  0.96926521  0.07314115  0.30550632     0.20600
C400        C  0.98557404  0.09358624  0.28371624     0.02800
C401        C  0.48743092  0.11291586  0.30462233    -0.22600
C402        C  0.97141318  0.11074601  0.36422744     0.12000
S403        S  0.93868318  0.09093069  0.44872707    -0.06200
C404        C  0.95433250  0.11917827  0.44646249    -0.09700
C405        C  0.97098819  0.12744286  0.39883804    -0.26300
S406        S  0.00304087  0.09258441  0.22066419    -0.03500
C407        C  0.98836349  0.06429102  0.22378208    -0.17000
C408        C  0.97079989  0.05627869  0.27137269    -0.14900
H409        H  0.94100823  0.05498063  0.37382556     0.20400
H410        H  0.50116904  0.12885260  0.28790256     0.16500
H411        H  0.48420717  0.14446092  0.38201110     0.19000
H412        H  0.95966154  0.03905296  0.28065854     0.12300
C413        C  0.88565249  0.26524078  0.52392056     0.16200
C414        C  0.90292770  0.24659430  0.54965078    -0.32800
C415        C  0.88320071  0.22551641  0.53604416     0.20600
C416        C  0.84923962  0.22296642  0.49767001     0.02800
C417        C  0.83118939  0.24161407  0.47248257    -0.22600
C418        C  0.84981328  0.26270940  0.48680654     0.12000
S419        S  0.90184013  0.29242466  0.53655409    -0.06200
C420        C  0.85789820  0.30038927  0.49269275    -0.09700
C421        C  0.83383074  0.28278996  0.46882370    -0.26300
S422        S  0.83573012  0.19580467  0.48316256    -0.03500
C423        C  0.87475049  0.18781155  0.53027922    -0.17000
C424        C  0.89672301  0.20542553  0.55561838    -0.14900
H425        H  0.93028100  0.24842830  0.57912550     0.20400
H426        H  0.80389961  0.23977336  0.44295268     0.16500
H427        H  0.80332498  0.28465588  0.44166542     0.19000
H428        H  0.92544424  0.20353259  0.58410127     0.12300
C429        C  0.86456275  0.59837593  0.55204341     0.16200
C430        C  0.86899908  0.57621545  0.56765294    -0.32800
C431        C  0.86544563  0.55934741  0.53244988     0.20600
C432        C  0.85742231  0.56431617  0.48394236     0.02800
C433        C  0.85324034  0.58649390  0.46827386    -0.22600
C434        C  0.85700019  0.60336696  0.50347258     0.12000
S435        S  0.87234418  0.62115931  0.58810999    -0.06200
C436        C  0.86715638  0.63771668  0.53684678    -0.09700
C437        C  0.85770254  0.62591598  0.49468826    -0.26300
S438        S  0.84891958  0.54147445  0.44814441    -0.03500
C439        C  0.85649112  0.52506189  0.49895146    -0.17000
C440        C  0.86545072  0.53680283  0.54117084    -0.14900
H441        H  0.87520645  0.57229935  0.60552053     0.20400
H442        H  0.84726828  0.59041820  0.43035796     0.16500
H443        H  0.85671832  0.63332832  0.45843555     0.19000
H444        H  0.86662933  0.52932388  0.57733431     0.12300
C445        C  0.53895176  0.56088233  0.49230901     0.16200
C446        C  0.51619801  0.58018973  0.47277570    -0.32800
C447        C  0.53163629  0.60084740  0.49191599     0.20600
C448        C  0.56779447  0.60231617  0.52890613     0.02800
C449        C  0.59185878  0.58306321  0.54757065    -0.22600
C450        C  0.57657618  0.56241174  0.52835361     0.12000
S451        S  0.52613536  0.53417723  0.47385075    -0.06200
C452        C  0.57350959  0.52510176  0.51404361    -0.09700
C453        C  0.59668371  0.54195163  0.54077817    -0.26300
S454        S  0.57567565  0.62876010  0.55069192    -0.03500
C455        C  0.52858428  0.63804975  0.51010963    -0.17000
C456        C  0.01000734  0.62117986  0.48769885    -0.14900
H457        H  0.98571346  0.57919303  0.45222092     0.20400
H458        H  0.62046484  0.58409327  0.57632905     0.16500
H459        H  0.62848094  0.53939186  0.56660528     0.19000
H460        H  0.97949319  0.62314386  0.46083163     0.12300
C461        C  0.54547660  0.22587094  0.47101019     0.16200
C462        C  0.54520258  0.24723541  0.44962686    -0.32800
C463        C  0.55706412  0.26554807  0.47911958     0.20600
C464        C  0.56894664  0.26261714  0.52745771     0.02800
C465        C  0.56976606  0.24133199  0.54847733    -0.22600
C466        C  0.55781377  0.22311239  0.51916640     0.12000
S467        S  0.02992983  0.20108827  0.45023208    -0.06200
C468        C  0.53364250  0.18776242  0.49847255    -0.09700
C469        C  0.55241806  0.20140241  0.53470290    -0.26300
S470        S  0.58513528  0.28654479  0.55662149    -0.03500
C471        C  0.57588647  0.30081519  0.50331829    -0.17000
C472        C  0.56089581  0.28759837  0.46497935    -0.14900
H473        H  0.04023832  0.24850226  0.41592998     0.20400
H474        H  0.57884081  0.23908213  0.58626665     0.16500
H475        H  0.55620212  0.19635730  0.57237105     0.19000
H476        H  0.55695941  0.29358947  0.42795613     0.12300
loop_ 
_geom_bond_atom_site_label_1 
_geom_bond_atom_site_label_2 
_geom_bond_distance 
_geom_bond_site_symmetry_2 
_ccdc_geom_bond_type 
C1            N2   1.352       .  A
C1            N6   1.344       .  A
C1          C233   1.460       .  S
N2            C3   1.362       .  A
C3            N4   1.374       .  A
C3           C31   1.466       .  S
N4            C5   1.367       .  A
C5            N6   1.354       .  A
C5           C35   1.481       .  S
C7            N8   1.346       .  A
C7           N12   1.353       .  A
C7          C214   1.467       .  S
N8            C9   1.355       .  A
C9           N10   1.365       .  A
C9           C17   1.479       .  S
N10          C11   1.372       .  A
C11          N12   1.362       .  A
C11          C29   1.465       .  S
C13          N14   1.353       .  A
C13          N18   1.344       .  A
C13         C201   1.459       .  S
N14          C15   1.363       .  A
C15          N16   1.373       .  A
C15          C32   1.467       .  S
N16          C17   1.367       .  A
C17          N18   1.353       .  A
O19         Cu27   2.017       .  S
O19         C267   1.278       .  A
O20         Cu27   2.014       .  S
O20          C30   1.277       .  A
O21         Cu27   2.019       .  S
O21         C269   1.278       .  A
O22         Cu27   2.022       .  S
O22          C32   1.278       .  A
O23         Cu28   2.018       .  S
O23          C32   1.278       .  A
O24         Cu28   2.020       .  S
O24         C269   1.277       .  A
O25         Cu28   2.024       .  S
O25          C30   1.279       .  A
O26         Cu28   2.019       .  S
O26         C267   1.278       .  A
Cu27        Cu28   2.376       .  S
C29         O257   1.277       .  A
C29         O264   1.278       .  A
C30          C37   1.467       .  S
C31         O259   1.278       .  A
C31         O262   1.277       .  A
C33          N34   1.346       .  A
C33          N38   1.354       .  A
C33         C182   1.468       .  S
N34          C35   1.354       .  A
C35          N36   1.366       .  A
N36          C37   1.373       .  A
C37          N38   1.363       .  A
C39          C40   1.547       .  S
C39          C45   1.522       .  S
C39          C43   1.539       .  S
C39         C153   1.516       .  S
C40          C41   1.375       .  D
C40         H285   1.081       .  S
C41          C42   1.538       .  S
C41         C468   1.489       .  S
C42          C46   1.541       .  S
C42          C44   1.536       .  S
C42          H48   1.108       .  S
C43          C44   1.369       .  D
C43          H49   1.086       .  S
C44         C185   1.474       .  S
C45          C46   1.358       .  D
C45          H50   1.086       .  S
C46         C166   1.482       .  S
H47         C278   1.081       .  S
C51          C52   1.541       .  S
C51          C57   1.528       .  S
C51          C55   1.542       .  S
C51         C118   1.519       .  S
C52          C53   1.369       .  D
C52          H59   1.086       .  S
C53          C54   1.536       .  S
C53         C198   1.479       .  S
C54          C58   1.536       .  S
C54          C56   1.542       .  S
C54          H60   1.106       .  S
C55          C56   1.374       .  D
C55         H299   1.085       .  S
C56         C455   1.493       .  S
C57          C58   1.357       .  D
C57          H62   1.080       .  S
C58         C134   1.479       .  S
H61         C293   1.085   1_455  S
N63          C67   1.343       .  A
N63          N64   1.321       .  A
N63         Cu71   2.059       .  S
N64          C65   1.346       .  A
N64         Cu70   2.079   1_545  S
C65          C66   1.387       .  A
C65          H68   1.082       .  S
C66         C169   1.474       .  S
C66          C67   1.381       .  A
C67          H69   1.082       .  S
Cu70         N73   2.080       .  S
Cu71         N81   2.058   1_554  S
Cu72         N74   2.084   1_556  S
Cu72         N80   2.084   1_565  S
N73          C77   1.346       .  A
N73          N74   1.324       .  A
N74          C75   1.346   1_554  A
C75          C76   1.384   1_556  A
C75          H78   1.081       .  S
C76         C100   1.475       .  S
C76          C77   1.384       .  A
C77          H79   1.081       .  S
N80          C84   1.348       .  A
N80          N81   1.322       .  A
N81          C82   1.342       .  A
C82          C83   1.379       .  A
C82          H85   1.082       .  S
C83         C150   1.469       .  S
C83          C84   1.386       .  A
C84          H86   1.082       .  S
N87          C91   1.344       .  A
N87          N88   1.322       .  A
N87         Cu95   2.061       .  S
N88          C89   1.343       .  A
N88         Cu94   2.072       .  S
C89          C90   1.383       .  A
C89          H92   1.082       .  S
C90         C137   1.469       .  S
C90          C91   1.382       .  A
C91          H93   1.082       .  S
Cu94         N97   2.073       .  S
Cu95        N105   2.062   1_554  S
Cu96         N98   2.082   1_556  S
Cu96        N104   2.081       .  S
N97         C101   1.345       .  A
N97          N98   1.322       .  A
N98          C99   1.346   1_554  A
C99         C100   1.385   1_556  A
C99         H102   1.081       .  S
C100        C101   1.383       .  A
C101        H103   1.081       .  S
N104        C108   1.345       .  A
N104        N105   1.322       .  A
N105        C106   1.344       .  A
C106        C107   1.383       .  A
C106        H109   1.082       .  S
C107        C121   1.473       .  S
C107        C108   1.385       .  A
C108        H110   1.082       .  S
C111        C116   1.384       .  A
C111        C112   1.403       .  A
C111        S117   1.708       .  A
C112        C113   1.405       .  A
C112        H123   1.083       .  S
C113        C122   1.371       .  A
C113        C114   1.386       .  A
C114        C353   1.397       .  A
C114        S358   1.703       .  A
C115        C352   1.397       .  A
C115        C354   1.400       .  A
C115        H124   1.083       .  S
C116        C119   1.365       .  A
C116        C353   1.400       .  A
S117        C118   1.729       .  A
C118        C119   1.391       .  A
C119        H363   1.078       .  S
S120        C352   1.703       .  A
S120        C359   1.721       .  A
C121        C122   1.389       .  A
C121        S358   1.721       .  A
C122        H126   1.083       .  S
H125        C357   1.078       .  S
C127        C132   1.386       .  A
C127        C128   1.402       .  A
C127        S133   1.709       .  A
C128        C129   1.403       .  A
C128        H139   1.083       .  S
C129        C138   1.369       .  A
C129        C130   1.387       .  A
C130        C369   1.397       .  A
C130        S374   1.703       .  A
C131        C368   1.397       .  A
C131        C370   1.399       .  A
C131        H140   1.083       .  S
C132        C135   1.364       .  A
C132        C369   1.399       .  A
S133        C134   1.724       .  A
C134        C135   1.387       .  A
C135        H379   1.082       .  S
S136        C368   1.703       .  A
S136        C375   1.720       .  A
C137        C138   1.387       .  A
C137        S374   1.720       .  A
C138        H142   1.083       .  S
H141        C373   1.082       .  S
C143        C148   1.387       .  A
C143        C144   1.401       .  A
C143        S149   1.705       .  A
C144        C145   1.402       .  A
C144        H393   1.083       .  S
C145        C154   1.371       .  A
C145        C146   1.385       .  A
C146        C147   1.402       .  A
C146        S152   1.703       .  A
C147        C148   1.402       .  A
C147        H156   1.082       .  S
C148        C151   1.372       .  A
S149        C150   1.722       .  A
C150        C151   1.386       .  A
C151        H157   1.083       .  S
S152        C153   1.728       .  A
C153        C154   1.391       .  A
C154        H396   1.080       .  S
H155        C382   1.083       .  S
H158        C392   1.080   1_455  S
C159        C164   1.386       .  A
C159        C160   1.399       .  A
C159        S165   1.699       .  A
C160        C161   1.399       .  A
C160        H171   1.083       .  S
C161        C170   1.368       .  A
C161        C162   1.387       .  A
C162        C401   1.403       .  A
C162        S168   1.706       .  A
C163        C400   1.402       .  A
C163        C402   1.403       .  A
C163        H172   1.083   1_655  S
C164        C167   1.372       .  A
C164        C401   1.403       .  A
S165        C166   1.726       .  A
C166        C167   1.388       .  A
C167        H411   1.082       .  S
S168        C169   1.725       .  A
C169        C170   1.385       .  A
C170        H174   1.083       .  S
H173        C405   1.082       .  S
C175        C180   1.386       .  A
C175        C176   1.401       .  A
C175        S181   1.712       .  A
C176        C177   1.404       .  A
C176        H187   1.083       .  S
C177        C186   1.367       .  A
C177        C178   1.386       .  A
C178        C179   1.400       .  A
C178        S184   1.710       .  A
C179        C180   1.403       .  A
C179        H188   1.083       .  S
C180        C183   1.366       .  A
S181        C182   1.721       .  A
C182        C183   1.387       .  A
C183        H189   1.084       .  S
S184        C185   1.720       .  A
C185        C186   1.387       .  A
C186        H190   1.083       .  S
C191        C196   1.386       .  A
C191        C192   1.400       .  A
C191        S197   1.702       .  A
C192        C193   1.401       .  A
C192        H203   1.083       .  S
C193        C202   1.370       .  A
C193        C194   1.386       .  A
C194        C195   1.402       .  A
C194        S200   1.705       .  A
C195        C196   1.402       .  A
C195        H204   1.083       .  S
C196        C199   1.371       .  A
S197        C198   1.726       .  A
C198        C199   1.387       .  A
C199        H205   1.083       .  S
S200        C201   1.722       .  A
C201        C202   1.383       .  A
C202        H206   1.083       .  S
C207        C212   1.386       .  A
C207        C208   1.400       .  A
C207        S213   1.711       .  A
C208        C209   1.403       .  A
C208        H457   1.082   1_455  S
C209        C210   1.383       .  A
C209        C456   1.365       .  A
C210        C211   1.401       .  A
C210        S216   1.708       .  A
C211        C212   1.404       .  A
C211        H220   1.083       .  S
C212        C215   1.367       .  A
S213        C214   1.721       .  A
C214        C215   1.387       .  A
C215        H221   1.083       .  S
S216        C217   1.729       .  A
C217        C294   1.493   1_455  S
C217        C456   1.392       .  A
C218        C447   1.365       .  A
C218        C455   1.392       .  A
C218        H222   1.078       .  S
H219        C446   1.082       .  S
C223        C228   1.384       .  A
C223        C224   1.404       .  A
C223        S467   1.706       .  A
C224        C225   1.405       .  A
C224        H473   1.082       .  S
C225        C234   1.373       .  A
C225        C226   1.387       .  A
C226        C227   1.397       .  A
C226        S232   1.701       .  A
C227        C228   1.399       .  A
C227        H236   1.082       .  S
C228        C231   1.366       .  A
S229        C461   1.707       .  A
S229        C468   1.730       .  A
C230        C279   1.488       .  S
C230        C231   1.389       .  A
C230        S467   1.730       .  A
C231        H237   1.081       .  S
S232        C233   1.718       .  A
C233        C234   1.386       .  A
C234        H238   1.083       .  S
H235        C462   1.082       .  S
C239        N240   1.352       .  A
C239        N244   1.344       .  A
C239        C471   1.460       .  S
N240        C241   1.362       .  A
C241        N242   1.374       .  A
C241        C269   1.467       .  S
N242        C243   1.367       .  A
C243        N244   1.354       .  A
C243        C273   1.481       .  S
C245        N246   1.346       .  A
C245        N250   1.353       .  A
C245        C452   1.468       .  S
N246        C247   1.354       .  A
C247        N248   1.366       .  A
C247        C255   1.480       .  S
N248        C249   1.373       .  A
C249        N250   1.363       .  A
C249        C267   1.466       .  S
C251        N252   1.352       .  A
C251        N256   1.343       .  A
C251        C439   1.459       .  S
N252        C253   1.362       .  A
C253        N254   1.374       .  A
C253        C270   1.467       .  S
N254        C255   1.367       .  A
C255        N256   1.353       .  A
O257       Cu265   2.015   1_455  S
O258       Cu265   2.013       .  S
O258        C268   1.277       .  A
O259       Cu265   2.018   1_455  S
O260       Cu265   2.021       .  S
O260        C270   1.278       .  A
O261       Cu266   2.017       .  S
O261        C270   1.278       .  A
O262       Cu266   2.019   1_455  S
O263       Cu266   2.023       .  S
O263        C268   1.279       .  A
O264       Cu266   2.019   1_455  S
Cu265      Cu266   2.376       .  S
C268        C275   1.466       .  S
C271        N272   1.345       .  A
C271        N276   1.353       .  A
C271        C420   1.468       .  S
N272        C273   1.353       .  A
C273        N274   1.366       .  A
N274        C275   1.373       .  A
C275        N276   1.363       .  A
C277        C278   1.548   1_655  S
C277        C283   1.522       .  S
C277        C281   1.539       .  S
C277        C391   1.516       .  S
C278        C279   1.375       .  D
C279        C280   1.538   1_455  S
C280        C284   1.541       .  S
C280        C282   1.536       .  S
C280        H286   1.108       .  S
C281        C282   1.369       .  D
C281        H287   1.086       .  S
C282        C423   1.474       .  S
C283        C284   1.358       .  D
C283        H288   1.086       .  S
C284        C404   1.482       .  S
C289        C290   1.541       .  S
C289        C295   1.528       .  S
C289        C293   1.543       .  S
C289        C356   1.519       .  S
C290        C291   1.369       .  D
C290        H297   1.086       .  S
C291        C292   1.536       .  S
C291        C436   1.479       .  S
C292        C296   1.536       .  S
C292        C294   1.542       .  S
C292        H298   1.106       .  S
C293        C294   1.374       .  D
C295        C296   1.357       .  D
C295        H300   1.080       .  S
C296        C372   1.480       .  S
N301        C305   1.343       .  A
N301        N302   1.321   1_455  A
N301       Cu309   2.059       .  S
N302        C303   1.346       .  A
N302       Cu308   2.079   1_545  S
C303        C304   1.387       .  A
C303        H306   1.082       .  S
C304        C407   1.474       .  S
C304        C305   1.381   1_655  A
C305        H307   1.082       .  S
Cu308       N311   2.080       .  S
Cu309       N319   2.058   1_554  S
Cu310       N312   2.085   1_556  S
Cu310       N318   2.085   1_565  S
N311        C315   1.346       .  A
N311        N312   1.324       .  A
N312        C313   1.346   1_554  A
C313        C314   1.384   1_556  A
C313        H316   1.081       .  S
C314        C338   1.475       .  S
C314        C315   1.384       .  A
C315        H317   1.081       .  S
N318        C322   1.348       .  A
N318        N319   1.322   1_655  A
N319        C320   1.342       .  A
C320        C321   1.379   1_455  A
C320        H323   1.082       .  S
C321        C388   1.470       .  S
C321        C322   1.387       .  A
C322        H324   1.082       .  S
N325        C329   1.344       .  A
N325        N326   1.322       .  A
N325       Cu333   2.062       .  S
N326        C327   1.343       .  A
N326       Cu332   2.072       .  S
C327        C328   1.383       .  A
C327        H330   1.082       .  S
C328        C375   1.469       .  S
C328        C329   1.382       .  A
C329        H331   1.082       .  S
Cu332       N335   2.073       .  S
Cu333       N343   2.062   1_554  S
Cu334       N336   2.081   1_556  S
Cu334       N342   2.081       .  S
N335        C339   1.346       .  A
N335        N336   1.322       .  A
N336        C337   1.346   1_554  A
C337        C338   1.385   1_556  A
C337        H340   1.081       .  S
C338        C339   1.383       .  A
C339        H341   1.082       .  S
N342        C346   1.345       .  A
N342        N343   1.322       .  A
N343        C344   1.344       .  A
C344        C345   1.383       .  A
C344        H347   1.082       .  S
C345        C359   1.473       .  S
C345        C346   1.385       .  A
C346        H348   1.082       .  S
C349        C354   1.384       .  A
C349        C350   1.403       .  A
C349        S355   1.708       .  A
C350        C351   1.405       .  A
C350        H361   1.083       .  S
C351        C360   1.370       .  A
C351        C352   1.386       .  A
C353        H362   1.083       .  S
C354        C357   1.364       .  A
S355        C356   1.729       .  A
C356        C357   1.392       .  A
C359        C360   1.389       .  A
C360        H364   1.083       .  S
C365        C370   1.386       .  A
C365        C366   1.402       .  A
C365        S371   1.709       .  A
C366        C367   1.404       .  A
C366        H377   1.083       .  S
C367        C376   1.369       .  A
C367        C368   1.387       .  A
C369        H378   1.083       .  S
C370        C373   1.364       .  A
S371        C372   1.724       .  A
C372        C373   1.387       .  A
C375        C376   1.387       .  A
C376        H380   1.083       .  S
C381        C386   1.387   1_455  A
C381        C382   1.401       .  A
C381        S387   1.704       .  A
C382        C383   1.402   1_455  A
C383        C392   1.371       .  A
C383        C384   1.385       .  A
C384        C385   1.403       .  A
C384        S390   1.703       .  A
C385        C386   1.403       .  A
C385        H394   1.082       .  S
C386        C389   1.372       .  A
S387        C388   1.722   1_455  A
C388        C389   1.386       .  A
C389        H395   1.083       .  S
S390        C391   1.729       .  A
C391        C392   1.391       .  A
C397        C402   1.386       .  A
C397        C398   1.399       .  A
C397        S403   1.700       .  A
C398        C399   1.399       .  A
C398        H409   1.083       .  S
C399        C408   1.368       .  A
C399        C400   1.387       .  A
C400        S406   1.706   1_655  A
C401        H410   1.083       .  S
C402        C405   1.372       .  A
S403        C404   1.726       .  A
C404        C405   1.388       .  A
S406        C407   1.725   1_455  A
C407        C408   1.385       .  A
C408        H412   1.083       .  S
C413        C418   1.386       .  A
C413        C414   1.401       .  A
C413        S419   1.713       .  A
C414        C415   1.404       .  A
C414        H425   1.083       .  S
C415        C424   1.367       .  A
C415        C416   1.386       .  A
C416        C417   1.400       .  A
C416        S422   1.710       .  A
C417        C418   1.403       .  A
C417        H426   1.083       .  S
C418        C421   1.365       .  A
S419        C420   1.722       .  A
C420        C421   1.387       .  A
C421        H427   1.084       .  S
S422        C423   1.720       .  A
C423        C424   1.388       .  A
C424        H428   1.083       .  S
C429        C434   1.386       .  A
C429        C430   1.401       .  A
C429        S435   1.702       .  A
C430        C431   1.401       .  A
C430        H441   1.083       .  S
C431        C440   1.370       .  A
C431        C432   1.387       .  A
C432        C433   1.401       .  A
C432        S438   1.704       .  A
C433        C434   1.402       .  A
C433        H442   1.083       .  S
C434        C437   1.370       .  A
S435        C436   1.726       .  A
C436        C437   1.387       .  A
C437        H443   1.083       .  S
S438        C439   1.721       .  A
C439        C440   1.383       .  A
C440        H444   1.083       .  S
C445        C450   1.386       .  A
C445        C446   1.400       .  A
C445        S451   1.712       .  A
C446        C447   1.404       .  A
C447        C448   1.383       .  A
C448        C449   1.400       .  A
C448        S454   1.708       .  A
C449        C450   1.403       .  A
C449        H458   1.083       .  S
C450        C453   1.366       .  A
S451        C452   1.721       .  A
C452        C453   1.387       .  A
C453        H459   1.083       .  S
S454        C455   1.728       .  A
C456        H460   1.078   1_455  S
C461        C466   1.384       .  A
C461        C462   1.405       .  A
C462        C463   1.405       .  A
C463        C472   1.374       .  A
C463        C464   1.387       .  A
C464        C465   1.397       .  A
C464        S470   1.701       .  A
C465        C466   1.398       .  A
C465        H474   1.082       .  S
C466        C469   1.366       .  A
C468        C469   1.389       .  A
C469        H475   1.081       .  S
S470        C471   1.718       .  A
C471        C472   1.386       .  A
C472        H476   1.083       .  S
