geometry optimzed in LAMMPS
_audit_creation_date              2020-11-30 
_audit_creation_method            'lammps2cif' 
_symmetry_space_group_name_H-M    'P1' 
_symmetry_Int_Tables_number       1 
_symmetry_cell_setting            triclinic 
loop_ 
_symmetry_equiv_pos_as_xyz 
  x,y,z 
_cell_length_a                    58.20239248712643 
_cell_length_b                    57.535615032218104 
_cell_length_c                    58.05166237581983 
_cell_angle_alpha                 89.70593977191378 
_cell_angle_beta                  89.20811536216902 
_cell_angle_gamma                 90.02535337093477 
loop_ 
_atom_site_label 
_atom_site_type_symbol 
_atom_site_fract_x 
_atom_site_fract_y 
_atom_site_fract_z 
_atom_site_charge 
C1          C  0.75260337  0.49797511  0.00210490    -0.01680
C2          C  0.50244501  0.74748040  0.00119744    -0.01680
C3          C  0.00367089  0.49730718  0.75203132    -0.01680
C4          C  0.49848126  0.99752471  0.74983470    -0.01680
C5          C  0.75062829  0.99727475  0.49860390    -0.01680
C6          C  0.99948969  0.74748050  0.49878402    -0.01680
C7          C  0.25256798  0.49935165  0.99853891    -0.01680
O8          O  0.97774007  0.51540360  0.02869590    -0.72140
O9          O  0.02743749  0.52036825  0.98127698    -0.73120
O10         O  0.97884397  0.51798182  0.98073037    -0.61740
O11         O  0.02582730  0.51784566  0.02968705    -0.70150
O12         O  0.02913879  0.47946894  0.02657002    -0.69700
O13         O  0.97973908  0.47932487  0.97995650    -0.60950
O14         O  0.02743360  0.48181778  0.97831024    -0.73460
O15         O  0.98092830  0.47686465  0.02876774    -0.72240
Cu16       Cu  0.00241328  0.51928541  0.00515763     1.04560
Cu17       Cu  0.00437091  0.47798260  0.00336415     1.04330
C18         C  0.97177198  0.49547723  0.03639730     0.94060
C19         C  0.03488088  0.50172382  0.97203334     0.93200
C20         C  0.97178977  0.49866830  0.97279599     0.85350
C21         C  0.03502984  0.49867207  0.03564592     0.91620
N22         N  0.90170069  0.49420991  0.85055398    -0.26480
N23         N  0.92008061  0.48481914  0.85997159    -0.34340
C24         C  0.93778365  0.48554661  0.84503060     0.01860
C25         C  0.93054917  0.49584102  0.82500384     0.07880
C26         C  0.90742590  0.50098874  0.82884232    -0.05220
H27         H  0.95505518  0.47986481  0.84886022     0.08550
H28         H  0.89597448  0.50973615  0.81709701     0.09750
Cu29       Cu  0.92348013  0.47681193  0.89411869     0.44170
Cu30       Cu  0.87145047  0.49930446  0.87033371     0.41990
Cu31       Cu  0.89450586  0.52165769  0.92268544     0.43880
N32         N  0.93413900  0.48958558  0.92497557    -0.33870
N33         N  0.92492993  0.50843248  0.93407467    -0.28120
C34         C  0.93693120  0.51463629  0.95259205    -0.04220
C35         C  0.95440477  0.49872728  0.95516396     0.07990
C36         C  0.95224386  0.48305386  0.93746093     0.01790
H37         H  0.93280059  0.52915662  0.96370487     0.09440
H38         H  0.96340788  0.46852636  0.93346975     0.08520
N39         N  0.86046163  0.51395123  0.91884918    -0.35320
N40         N  0.85132378  0.50452399  0.90037080    -0.27500
C41         C  0.82963293  0.49776452  0.90589834    -0.02740
C42         C  0.82549579  0.50303439  0.92897646     0.05870
C43         C  0.84534243  0.51329388  0.93641912     0.03970
H44         H  0.81813297  0.48888412  0.89437605     0.09070
H45         H  0.84897378  0.51887168  0.95379185     0.07900
C46         C  0.00028574  0.49793962  0.24842860    -0.01680
N47         N  0.89428085  0.49093845  0.15872245    -0.26480
N48         N  0.91290045  0.48059522  0.15032548    -0.34340
C49         C  0.92899513  0.47939083  0.16652281     0.01860
C50         C  0.92067648  0.48946597  0.18636770     0.07880
C51         C  0.89854391  0.49683630  0.18089568    -0.05220
H52         H  0.94607396  0.47325439  0.16336369     0.08550
H53         H  0.88691919  0.50661308  0.19183272     0.09750
Cu54       Cu  0.92087931  0.47410585  0.11628313     0.44170
Cu55       Cu  0.86531091  0.49787046  0.13773481     0.41990
Cu56       Cu  0.89270493  0.51538915  0.08572262     0.43880
N57         N  0.93343787  0.48536399  0.08486530    -0.33870
N58         N  0.92350578  0.50313083  0.07465762    -0.28120
C59         C  0.93546958  0.50913240  0.05574162    -0.04220
C60         C  0.95388377  0.49427597  0.05396635     0.07990
C61         C  0.95225594  0.47931191  0.07262897     0.01790
H62         H  0.93083761  0.52296950  0.04396974     0.09440
H63         H  0.96421855  0.46577406  0.07741556     0.08520
N64         N  0.85837801  0.50976534  0.08822041    -0.35320
N65         N  0.84680154  0.50322854  0.10684012    -0.27500
C66         C  0.82460660  0.49985485  0.10065625    -0.02740
C67         C  0.82271005  0.50437627  0.07696386     0.05870
C68         C  0.84471128  0.51002163  0.07000365     0.03970
H69         H  0.81099050  0.49440189  0.11237063     0.09070
H70         H  0.85065290  0.51368856  0.05259140     0.07900
N71         N  0.10739602  0.48983546  0.84721815    -0.26480
N72         N  0.08838161  0.48424905  0.85861477    -0.34340
C73         C  0.07056792  0.48379871  0.84448712     0.01860
C74         C  0.07808627  0.48827699  0.82237551     0.07880
C75         C  0.10177150  0.49234668  0.82466623    -0.05220
H76         H  0.05300255  0.48098487  0.85023463     0.08550
H77         H  0.11385766  0.49698232  0.81106877     0.09750
Cu78       Cu  0.08403095  0.48007299  0.89304091     0.44170
Cu79       Cu  0.13827218  0.49521158  0.86600590     0.41990
Cu80       Cu  0.11632923  0.51647206  0.92248493     0.43880
N81         N  0.07217638  0.49300793  0.92329208    -0.33870
N82         N  0.08373558  0.50925124  0.93398421    -0.28120
C83         C  0.07185916  0.51585275  0.95284178    -0.04220
C84         C  0.05192499  0.50281359  0.95368383     0.07990
C85         C  0.05262530  0.48850639  0.93477909     0.01790
H86         H  0.07790666  0.52800485  0.96559340     0.09440
H87         H  0.04001094  0.47568952  0.92982467     0.08520
N88         N  0.14994818  0.50853064  0.91504460    -0.35320
N89         N  0.15917266  0.50096109  0.89549781    -0.27500
C90         C  0.18202819  0.49770809  0.89909799    -0.02740
C91         C  0.18690290  0.50353507  0.92194309     0.05870
C92         C  0.16594234  0.50978474  0.93121813     0.03970
H93         H  0.19420093  0.49191691  0.88607982     0.09070
H94         H  0.16248099  0.51521010  0.94877739     0.07900
O95         O  0.51708511  0.47298789  0.01744007    -0.72140
O96         O  0.47062373  0.52365889  0.01576393    -0.73120
O97         O  0.46955911  0.47493826  0.01375206    -0.61740
O98         O  0.51896443  0.52149881  0.01967554    -0.70150
O99         O  0.52183010  0.52428932  0.98146425    -0.69700
O100        O  0.47223014  0.47696925  0.97552367    -0.60950
O101        O  0.47408640  0.52603472  0.97761653    -0.73460
O102        O  0.52102497  0.47559047  0.97933663    -0.72240
Cu103      Cu  0.49388867  0.49826681  0.01798754     1.04560
Cu104      Cu  0.49738824  0.50074132  0.97708228     1.04330
C105        C  0.52656994  0.46656260  0.99861454     0.94060
C106        C  0.46505567  0.53280584  0.99654776     0.93200
C107        C  0.46329698  0.46837760  0.99388404     0.85350
C108        C  0.52819729  0.53010942  0.00154105     0.91620
N109        N  0.65487907  0.60044972  0.00414963    -0.26480
N110        N  0.64515767  0.58058615  0.01068355    -0.34340
C111        C  0.66031955  0.56326859  0.00939162     0.01860
C112        C  0.68090852  0.57198086  0.00177882     0.07880
C113        C  0.67719916  0.59578975  0.99877417    -0.05220
H114        H  0.65641271  0.54527192  0.01340895     0.08550
H115        H  0.68961723  0.60855181  0.99280021     0.09750
Cu116      Cu  0.61168558  0.57334952  0.01844871     0.44170
Cu117      Cu  0.63588891  0.63217781  0.00214725     0.41990
Cu118      Cu  0.57682156  0.61245367  0.99855592     0.43880
N119        N  0.57872268  0.56406060  0.01171979    -0.33870
N120        N  0.56537247  0.57958489  0.00206078    -0.28120
C121        C  0.54522012  0.56993056  0.99684613    -0.04220
C122        C  0.54617677  0.54710030  0.00381510     0.07990
C123        C  0.56755729  0.54372669  0.01320790     0.01790
H124        H  0.53098175  0.57890772  0.98893962     0.09440
H125        H  0.57466569  0.52770545  0.01989986     0.08520
N126        N  0.58607176  0.64585982  0.00292569    -0.35320
N127        N  0.60693041  0.65492748  0.00295680    -0.27500
C128        C  0.60444050  0.67844976  0.00339610    -0.02740
C129        C  0.58090286  0.68356742  0.00406236     0.05870
C130        C  0.57020856  0.66241673  0.00397580     0.03970
H131        H  0.61846350  0.69079097  0.00238865     0.09070
H132        H  0.55192110  0.65920595  0.00295850     0.07900
C133        C  0.50260608  0.24976572  0.99634256    -0.01680
O134        O  0.48048291  0.97180647  0.03085209    -0.72140
O135        O  0.48142643  0.02086512  0.98279614    -0.73120
O136        O  0.48311527  0.97290346  0.98261505    -0.61740
O137        O  0.47901547  0.02082152  0.03153726    -0.70150
O138        O  0.51716098  0.02332956  0.03138749    -0.69700
O139        O  0.52122313  0.97255515  0.98548157    -0.60950
O140        O  0.51967399  0.02149984  0.98340213    -0.73460
O141        O  0.51846109  0.97452048  0.03382355    -0.72240
Cu142      Cu  0.47964119  0.99656625  0.00698826     1.04560
Cu143      Cu  0.52050973  0.99799982  0.00862629     1.04330
C144        C  0.49929782  0.96546573  0.03991492     0.94060
C145        C  0.50065663  0.02841432  0.97516057     0.93200
C146        C  0.50277571  0.96531201  0.97635607     0.85350
C147        C  0.49752959  0.02999740  0.03874564     0.91620
N148        N  0.49403971  0.89503503  0.84891488    -0.26480
N149        N  0.49030354  0.91487456  0.85971026    -0.34340
C150        C  0.48982739  0.93242554  0.84472672     0.01860
C151        C  0.49245283  0.92384150  0.82286162     0.07880
C152        C  0.49541034  0.89986425  0.82600307    -0.05220
H153        H  0.48779750  0.95046621  0.84960342     0.08550
H154        H  0.49830465  0.88701915  0.81271447     0.09750
Cu155      Cu  0.48700566  0.92072734  0.89395285     0.44170
Cu156      Cu  0.49808745  0.86376760  0.86811046     0.41990
Cu157      Cu  0.51687540  0.88489714  0.92543945     0.43880
N158        N  0.49678373  0.93078570  0.92569100    -0.33870
N159        N  0.51059562  0.91740035  0.93756811    -0.28120
C160        C  0.51558069  0.92776941  0.95752970    -0.04220
C161        C  0.50399395  0.94866967  0.95786924     0.07990
C162        C  0.49222361  0.95013813  0.93752134     0.01790
H163        H  0.52573903  0.92017232  0.97112162     0.09440
H164        H  0.48124292  0.96413355  0.93174609     0.08520
N165        N  0.50926137  0.85135364  0.91742230    -0.35320
N166        N  0.50283110  0.84230353  0.89760457    -0.27500
C167        C  0.50007741  0.81904853  0.90095664    -0.02740
C168        C  0.50500032  0.81385998  0.92393425     0.05870
C169        C  0.51021320  0.83490021  0.93355548     0.03970
H170        H  0.49535242  0.80685262  0.88769070     0.09070
H171        H  0.51502482  0.83806996  0.95123345     0.07900
C172        C  0.50204822  0.99833651  0.24890614    -0.01680
N173        N  0.50746357  0.88926336  0.15939107    -0.26480
N174        N  0.51765478  0.90765035  0.15012774    -0.34340
C175        C  0.51839998  0.92493882  0.16543584     0.01860
C176        C  0.50826252  0.91751742  0.18569844     0.07880
C177        C  0.50134008  0.89470126  0.18137409    -0.05220
H178        H  0.52426564  0.94234112  0.16141331     0.08550
H179        H  0.49159436  0.88346285  0.19289368     0.09750
Cu180      Cu  0.52310165  0.91226950  0.11558472     0.44170
Cu181      Cu  0.50069676  0.86003712  0.13824006     0.41990
Cu182      Cu  0.47441141  0.88649276  0.08974241     0.43880
N183        N  0.50851295  0.92499236  0.08632952    -0.33870
N184        N  0.48888955  0.91707849  0.07832409    -0.28120
C185        C  0.48244411  0.93040869  0.06054065    -0.04220
C186        C  0.49890284  0.94742506  0.05742442     0.07990
C187        C  0.51519656  0.94356589  0.07395578     0.01790
H188        H  0.46737408  0.92744763  0.05022447     0.09440
H189        H  0.53046106  0.95376159  0.07713228     0.08520
N190        N  0.48073875  0.85146167  0.09156344    -0.35320
N191        N  0.49293706  0.84132640  0.10780439    -0.27500
C192        C  0.50004717  0.82037526  0.09970721    -0.02740
C193        C  0.49186563  0.81757072  0.07732538     0.05870
C194        C  0.47941862  0.83754398  0.07323255     0.03970
H195        H  0.51149935  0.80876774  0.10874075     0.09070
H196        H  0.47157514  0.84257493  0.05714863     0.07900
N197        N  0.49606609  0.09889047  0.84796100    -0.26480
N198        N  0.49006980  0.07883756  0.85761925    -0.34340
C199        C  0.49156368  0.06174724  0.84221321     0.01860
C200        C  0.49878791  0.07093837  0.82155082     0.07880
C201        C  0.50133301  0.09470112  0.82551544    -0.05220
H202        H  0.48813258  0.04360918  0.84601109     0.08550
H203        H  0.50705304  0.10774337  0.81320693     0.09750
Cu204      Cu  0.48360639  0.07194474  0.89158215     0.44170
Cu205      Cu  0.49783784  0.12998912  0.86749789     0.41990
Cu206      Cu  0.51097723  0.10985135  0.92525911     0.43880
N207        N  0.49293697  0.06265381  0.92405535    -0.33870
N208        N  0.50555805  0.07682748  0.93630955    -0.28120
C209        C  0.51080789  0.06666274  0.95635514    -0.04220
C210        C  0.50077580  0.04502188  0.95647755     0.07990
C211        C  0.48951486  0.04288118  0.93587242     0.01790
H212        H  0.52022594  0.07480807  0.97010819     0.09440
H213        H  0.47978113  0.02810826  0.92986674     0.08520
N214        N  0.50294046  0.14321919  0.91732645    -0.35320
N215        N  0.49836783  0.15197869  0.89678837    -0.27500
C216        C  0.49371160  0.17492683  0.89958678    -0.02740
C217        C  0.49490267  0.18000959  0.92305164     0.05870
C218        C  0.50079666  0.15951536  0.93344930     0.03970
H219        H  0.48973276  0.18691226  0.88576919     0.09070
H220        H  0.50372287  0.15664307  0.95163610     0.07900
O221        O  0.01367518  0.46671659  0.46953681    -0.72140
O222        O  0.01794581  0.51455529  0.51931410    -0.73120
O223        O  0.01436344  0.46570792  0.51732735    -0.61740
O224        O  0.01845860  0.51492107  0.47067072    -0.70150
O225        O  0.98031166  0.51842909  0.47092230    -0.69700
O226        O  0.97638325  0.47001823  0.51983579    -0.60950
O227        O  0.97995667  0.51877964  0.51861056    -0.73460
O228        O  0.97558291  0.47017230  0.47155946    -0.72240
Cu229      Cu  0.01751561  0.49040356  0.49424911     1.04560
Cu230      Cu  0.97669543  0.49443879  0.49528735     1.04330
C231        C  0.99361650  0.46099934  0.46298089     0.94060
C232        C  0.99947998  0.52446030  0.52634393     0.93200
C233        C  0.99492775  0.45991993  0.52576831     0.85350
C234        C  0.00015405  0.52413951  0.46323514     0.91620
N235        N  0.00699180  0.59794531  0.65119337    -0.26480
N236        N  0.01119028  0.57792340  0.64097743    -0.34340
C237        C  0.01135760  0.56074001  0.65641491     0.01860
C238        C  0.00825948  0.56988277  0.67806961     0.07880
C239        C  0.00519002  0.59375042  0.67420528    -0.05220
H240        H  0.01388292  0.54262898  0.65204757     0.08550
H241        H  0.00213255  0.60697580  0.68708331     0.09750
Cu242      Cu  0.01636334  0.57241044  0.60678077     0.44170
Cu243      Cu  0.00299755  0.62809086  0.63047628     0.41990
Cu244      Cu  0.97888562  0.60428311  0.57647848     0.43880
N245        N  0.00726285  0.56215702  0.57484026    -0.33870
N246        N  0.99064297  0.57311354  0.56414806    -0.28120
C247        C  0.98573310  0.56168320  0.54478730    -0.04220
C248        C  0.00025386  0.54272645  0.54342049     0.07990
C249        C  0.01369550  0.54343277  0.56271812     0.01790
H250        H  0.97275279  0.56684691  0.53259672     0.09440
H251        H  0.02624600  0.53072999  0.56817407     0.08520
N252        N  0.98775552  0.63833036  0.58154261    -0.35320
N253        N  0.99751010  0.64756206  0.59986085    -0.27500
C254        C  0.00414892  0.66948279  0.59419887    -0.02740
C255        C  0.99853274  0.67360055  0.57127313     0.05870
C256        C  0.98814184  0.65358190  0.56408301     0.03970
H257        H  0.01298972  0.68123077  0.60558336     0.09070
H258        H  0.98203487  0.64996251  0.54692171     0.07900
O259        O  0.47870605  0.01605326  0.52127074    -0.72140
O260        O  0.52091361  0.01230509  0.46710736    -0.73120
O261        O  0.47309774  0.01415392  0.47394307    -0.61740
O262        O  0.52654163  0.01526961  0.51452047    -0.70150
O263        O  0.52564851  0.97663849  0.51730582    -0.69700
O264        O  0.47228914  0.97545647  0.47537540    -0.60950
O265        O  0.51957258  0.97365098  0.46926175    -0.73460
O266        O  0.47840692  0.97738051  0.52341086    -0.72240
Cu267      Cu  0.49984899  0.01584056  0.49409777     1.04560
Cu268      Cu  0.49895623  0.97438139  0.49639038     1.04330
C269        C  0.47202198  0.99715105  0.53079677     0.94060
C270        C  0.52686161  0.99227343  0.45982614     0.93200
C271        C  0.46444183  0.99480484  0.46810263     0.85350
C272        C  0.53415515  0.99628340  0.52269461     0.91620
N273        N  0.65138185  0.99725305  0.59944541    -0.26480
N274        N  0.64380896  0.00744198  0.58045202    -0.34340
C275        C  0.65965211  0.00619814  0.56369029     0.01860
C276        C  0.67847092  0.99484991  0.57189140     0.07880
C277        C  0.67301419  0.98951966  0.59482559    -0.05220
H278        H  0.65731763  0.01267607  0.54631624     0.08550
H279        H  0.68373523  0.98038137  0.60697353     0.09750
Cu280      Cu  0.61172524  0.01900561  0.57274227     0.44170
Cu281      Cu  0.63045503  0.99354428  0.62983406     0.41990
Cu282      Cu  0.57349316  0.99579530  0.60773233     0.43880
N283        N  0.58067285  0.00936318  0.56019696    -0.33870
N284        N  0.56645110  0.99826505  0.57412743    -0.28120
C285        C  0.54835553  0.99066345  0.56248527    -0.04220
C286        C  0.55157370  0.99737967  0.53995226     0.07990
C287        C  0.57202703  0.00951608  0.53891514     0.01790
H288        H  0.53356512  0.98194424  0.57006783     0.09440
H289        H  0.58001283  0.01765110  0.52395787     0.08520
N290        N  0.58018159  0.99609479  0.64148506    -0.35320
N291        N  0.60038619  0.99390681  0.65132333    -0.27500
C292        C  0.59645795  0.99229724  0.67442918    -0.02740
C293        C  0.57268092  0.99353408  0.67845059     0.05870
C294        C  0.56334626  0.99638175  0.65716037     0.03970
H295        H  0.60965178  0.98990114  0.68718258     0.09070
H296        H  0.54526909  0.99763069  0.65313884     0.07900
C297        C  0.24963653  0.99618767  0.50119623    -0.01680
O298        O  0.02337533  0.97400805  0.51973766    -0.72140
O299        O  0.97801841  0.02546781  0.51765118    -0.73120
O300        O  0.97525262  0.97686833  0.51941634    -0.61740
O301        O  0.02606877  0.02269764  0.51809571    -0.70150
O302        O  0.02412268  0.02452035  0.47987639    -0.69700
O303        O  0.97897131  0.97289595  0.48143283    -0.60950
O304        O  0.97596862  0.02139959  0.47962999    -0.73460
O305        O  0.02700767  0.97592983  0.48156574    -0.72240
Cu306      Cu  0.00065988  0.99980718  0.52013694     1.04560
Cu307      Cu  0.00154828  0.99864908  0.47923212     1.04330
C308        C  0.03273734  0.96732761  0.50092287     0.94060
C309        C  0.96939067  0.03099665  0.49831491     0.93200
C310        C  0.96954885  0.96726276  0.50061261     0.85350
C311        C  0.03266543  0.03124768  0.49881267     0.91620
N312        N  0.89755925  0.84467544  0.49780562    -0.26480
N313        N  0.91646530  0.85438908  0.48933040    -0.34340
C314        C  0.93416004  0.83975369  0.49118776     0.01860
C315        C  0.92637422  0.81954200  0.50116872     0.07880
C316        C  0.90291414  0.82291483  0.50494900    -0.05220
H317        H  0.95164915  0.84371658  0.48588892     0.08550
H318        H  0.89086323  0.81069208  0.51260852     0.09750
Cu319      Cu  0.92013280  0.88828350  0.47975204     0.44170
Cu320      Cu  0.86705286  0.86426032  0.50053314     0.41990
Cu321      Cu  0.88978058  0.91845161  0.52161535     0.43880
N322        N  0.93121920  0.91932098  0.49198497    -0.33870
N323        N  0.92123298  0.92927745  0.50990607    -0.28120
C324        C  0.93345936  0.94794115  0.51598609    -0.04220
C325        C  0.95194346  0.94955803  0.50097917     0.07990
C326        C  0.95011761  0.93124971  0.48596885     0.01790
H327        H  0.92877698  0.95983581  0.52966990     0.09440
H328        H  0.96188880  0.92658175  0.47213611     0.08520
N329        N  0.85651877  0.91414078  0.51169262    -0.35320
N330        N  0.84748884  0.89500749  0.50308889    -0.27500
C331        C  0.82618682  0.90022710  0.49550983    -0.02740
C332        C  0.82231000  0.92381453  0.49921690     0.05870
C333        C  0.84180640  0.93183040  0.50955513     0.03970
H334        H  0.81465570  0.88801943  0.48749264     0.09070
H335        H  0.84530022  0.94952710  0.51474998     0.07900
C336        C  0.00019599  0.24729584  0.50141352    -0.01680
N337        N  0.84618460  0.10185338  0.49726966    -0.26480
N338        N  0.85588972  0.08303140  0.48839738    -0.33020
C339        C  0.84145985  0.06499156  0.48999835     0.01860
C340        C  0.82137997  0.07227903  0.50021260     0.07880
C341        C  0.82465264  0.09592046  0.50443553    -0.05220
H342        H  0.84550358  0.04752646  0.48436372     0.08550
H343        H  0.81247823  0.10770799  0.51242613     0.09750
Cu344      Cu  0.88931366  0.07888062  0.47800094     0.44170
Cu345      Cu  0.86478076  0.13361028  0.50040323     0.41990
Cu346      Cu  0.92002147  0.11149497  0.51488633     0.43880
N347        N  0.92098851  0.06834935  0.48843826    -0.33870
N348        N  0.93149463  0.07977543  0.50482304    -0.28120
C349        C  0.95042222  0.06823591  0.51096296    -0.04220
C350        C  0.95174653  0.04862650  0.49754660     0.07990
C351        C  0.93291824  0.04908138  0.48339915     0.01790
H352        H  0.96252547  0.07399721  0.52374044     0.09440
H353        H  0.92783248  0.03605702  0.47106153     0.08520
N354        N  0.91388217  0.14579650  0.50903817    -0.35320
N355        N  0.89412197  0.15546034  0.50350193    -0.27500
C356        C  0.89792027  0.17865695  0.50062291    -0.02740
C357        C  0.92122037  0.18315368  0.50451039     0.05870
C358        C  0.93046295  0.16174560  0.50940541     0.03970
H359        H  0.88479606  0.19127688  0.49651265     0.09070
H360        H  0.94817565  0.15799087  0.51350952     0.07900
N361        N  0.10247808  0.84367292  0.50549419    -0.26480
N362        N  0.08383911  0.85327997  0.51458820    -0.34340
C363        C  0.06601611  0.83872377  0.51296548     0.01860
C364        C  0.07345087  0.81873994  0.50242541     0.07880
C365        C  0.09680008  0.82218081  0.49803825    -0.05220
H366        H  0.04858911  0.84277826  0.51834287     0.08550
H367        H  0.10848924  0.81031669  0.48944993     0.09750
Cu368      Cu  0.08048399  0.88737822  0.52366533     0.44170
Cu369      Cu  0.13311478  0.86302639  0.50188445     0.41990
Cu370      Cu  0.11076598  0.91632513  0.47980140     0.43880
N371        N  0.07025216  0.91879125  0.51095883    -0.33870
N372        N  0.08004180  0.92803794  0.49244097    -0.28120
C373        C  0.06824025  0.94690659  0.48605031    -0.04220
C374        C  0.05024835  0.94951751  0.50146183     0.07990
C375        C  0.05189769  0.93150197  0.51705967     0.01790
H376        H  0.07278536  0.95816305  0.47167888     0.09440
H377        H  0.04020185  0.92740757  0.53118221     0.08520
N378        N  0.14429508  0.91230288  0.48889701    -0.35320
N379        N  0.15322635  0.89334236  0.49809819    -0.27500
C380        C  0.17461577  0.89859543  0.50537700    -0.02740
C381        C  0.17868963  0.92204012  0.50077575     0.05870
C382        C  0.15917492  0.92994634  0.49029357     0.03970
H383        H  0.18602130  0.88656005  0.51391385     0.09070
H384        H  0.15570750  0.94757730  0.48471141     0.07900
N385        N  0.39714749  0.99648381  0.65314912    -0.26480
N386        N  0.41605236  0.98680130  0.64450493    -0.34340
C387        C  0.43296834  0.98771077  0.65977379     0.01860
C388        C  0.42496556  0.99832343  0.67930357     0.07880
C389        C  0.40199655  0.00355707  0.67486154    -0.05220
H390        H  0.45031992  0.98163620  0.65652683     0.08550
H391        H  0.39000003  0.01229470  0.68629560     0.09750
Cu392      Cu  0.42326849  0.97672056  0.61151762     0.44170
Cu393      Cu  0.36663580  0.00080337  0.63330611     0.41990
Cu394      Cu  0.39087477  0.00899815  0.57779170     0.43880
N395        N  0.43590617  0.98787515  0.58043339    -0.33870
N396        N  0.42358672  0.00262601  0.56845331    -0.28120
C397        C  0.43516916  0.00921995  0.54952326    -0.04220
C398        C  0.45593286  0.99795979  0.54979533     0.07990
C399        C  0.45599238  0.98435914  0.56945719     0.01790
H400        H  0.42833135  0.02008280  0.53588972     0.09440
H401        H  0.46941003  0.97269202  0.57518862     0.08520
N402        N  0.35691903  0.00510043  0.58312759    -0.35320
N403        N  0.34607842  0.00298375  0.60312377    -0.27500
C404        C  0.32319421  0.00201337  0.59864651    -0.02740
C405        C  0.32028304  0.00356327  0.57467603     0.05870
C406        C  0.34219433  0.00484220  0.56584564     0.03970
H407        H  0.30977664  0.00050360  0.61167040     0.09070
H408        H  0.34726388  0.00587172  0.54783361     0.07900
N409        N  0.99699619  0.39371532  0.65489844    -0.26480
N410        N  0.99428670  0.41347910  0.64366323    -0.34340
C411        C  0.99487593  0.43141145  0.65796815     0.01860
C412        C  0.99683665  0.42322488  0.68006067     0.07880
C413        C  0.99855875  0.39899356  0.67763051    -0.05220
H414        H  0.99345511  0.44937321  0.65249436     0.08550
H415        H  0.00054590  0.38629739  0.69128456     0.09750
Cu416      Cu  0.98818799  0.41760095  0.60995374     0.44170
Cu417      Cu  0.99936100  0.36247159  0.63534413     0.41990
Cu418      Cu  0.02035987  0.38294882  0.57743533     0.43880
N419        N  0.99180871  0.42470409  0.57628418    -0.33870
N420        N  0.00624494  0.41238827  0.56375177    -0.28120
C421        C  0.00839094  0.42223768  0.54291035    -0.04220
C422        C  0.99437083  0.44159359  0.54270979     0.07990
C423        C  0.98412270  0.44280479  0.56409811     0.01790
H424        H  0.01982583  0.41627193  0.52930089     0.09440
H425        H  0.97359395  0.45673699  0.57094278     0.08520
N426        N  0.01487045  0.34907311  0.58677259    -0.35320
N427        N  0.00524083  0.34086465  0.60598189    -0.27500
C428        C  0.99936963  0.31836661  0.60208063    -0.02740
C429        C  0.00587154  0.31268849  0.57954077     0.05870
C430        C  0.01551420  0.33258298  0.57069028     0.03970
H431        H  0.99017834  0.30734876  0.61425087     0.09070
H432        H  0.02091592  0.33560473  0.55303949     0.07900
N433        N  0.10468527  0.15098489  0.49219222    -0.26480
N434        N  0.08851109  0.14154662  0.47952444    -0.34340
C435        C  0.07033072  0.15571865  0.47859199     0.01860
C436        C  0.07453621  0.17511268  0.49175363     0.07880
C437        C  0.09676754  0.17172756  0.49997819    -0.05220
H438        H  0.05429769  0.15122487  0.47048206     0.08550
H439        H  0.10582200  0.18276917  0.51187037     0.09750
Cu440      Cu  0.08644651  0.10678655  0.47238974     0.44170
Cu441      Cu  0.13454269  0.13147304  0.49961294     0.41990
Cu442      Cu  0.10950987  0.08107690  0.52296104     0.43880
N443        N  0.07303293  0.07758767  0.48791204    -0.33870
N444        N  0.07990350  0.07008807  0.50822580    -0.28120
C445        C  0.06647617  0.05248601  0.51525641    -0.04220
C446        C  0.05041782  0.04885933  0.49849274     0.07990
C447        C  0.05491551  0.06496933  0.48137115     0.01790
H448        H  0.06879757  0.04256751  0.53096443     0.09440
H449        H  0.04545322  0.06770423  0.46565125     0.08520
N450        N  0.14351878  0.08242767  0.51429266    -0.35320
N451        N  0.15361262  0.10054117  0.50441679    -0.27500
C452        C  0.17476444  0.09379753  0.49702591    -0.02740
C453        C  0.17744431  0.07024078  0.50222041     0.05870
C454        C  0.15735136  0.06386707  0.51323804     0.03970
H455        H  0.18693714  0.10487234  0.48793694     0.09070
H456        H  0.15274642  0.04664632  0.51935994     0.07900
N457        N  0.65555631  0.99915517  0.39547139    -0.26480
N458        N  0.64547355  0.99496779  0.41552920    -0.34340
C459        C  0.66037301  0.99565682  0.43263474     0.01860
C460        C  0.68153720  0.00105416  0.42370235     0.07880
C461        C  0.67821547  0.00290236  0.39978833    -0.05220
H462        H  0.65585282  0.99297163  0.45062842     0.08550
H463        H  0.69114122  0.00695667  0.38678939     0.09750
Cu464      Cu  0.61195373  0.99115781  0.42091568     0.44170
Cu465      Cu  0.63385036  0.99846326  0.36567881     0.41990
Cu466      Cu  0.57910214  0.96546486  0.38276197     0.43880
N467        N  0.57839946  0.98879971  0.42702468    -0.33870
N468        N  0.56506609  0.97689817  0.41335499    -0.28120
C469        C  0.54359610  0.97717502  0.42214692    -0.04220
C470        C  0.54404298  0.99049973  0.44192930     0.07990
C471        C  0.56631408  0.99743532  0.44463017     0.01790
H472        H  0.52895185  0.96843838  0.41480836     0.09440
H473        H  0.57350059  0.00687688  0.45893697     0.08520
N474        N  0.58823192  0.97646034  0.35014940    -0.35320
N475        N  0.60469420  0.99137076  0.34411193    -0.27500
C476        C  0.59835707  0.00140612  0.32386808    -0.02740
C477        C  0.57715791  0.99218455  0.31725239     0.05870
C478        C  0.57194440  0.97614760  0.33414780     0.03970
H479        H  0.60752566  0.01556583  0.31551417     0.09070
H480        H  0.55574250  0.96706611  0.33628759     0.07900
N481        N  0.99648902  0.65359440  0.39353682    -0.26480
N482        N  0.99877471  0.64289104  0.41354883    -0.34340
C483        C  0.99859861  0.65787718  0.43082044     0.01860
C484        C  0.99545289  0.67964393  0.42209777     0.07880
C485        C  0.99446574  0.67668497  0.39814460    -0.05220
H486        H  0.99998234  0.65300706  0.44881010     0.08550
H487        H  0.99208038  0.69013971  0.38529199     0.09750
Cu488      Cu  0.99981482  0.60898820  0.42025402     0.44170
Cu489      Cu  0.99660745  0.63320838  0.36273674     0.41990
Cu490      Cu  0.01487512  0.57269997  0.38152832     0.43880
N491        N  0.00249568  0.57575358  0.42947954    -0.33870
N492        N  0.00982899  0.56073232  0.41415674    -0.28120
C493        C  0.01006015  0.53950392  0.42368906    -0.04220
C494        C  0.00214155  0.54192719  0.44603622     0.07990
C495        C  0.99755300  0.56501951  0.44934298     0.01790
H496        H  0.01491621  0.52363945  0.41491956     0.09440
H497        H  0.99129725  0.57341017  0.46487084     0.08520
N498        N  0.00735022  0.58310058  0.34898451    -0.35320
N499        N  0.00010646  0.60336893  0.34091997    -0.27500
C500        C  0.99499700  0.60020054  0.31832396    -0.02740
C501        C  0.99924336  0.57695160  0.31267645     0.05870
C502        C  0.00680995  0.56702616  0.33260668     0.03970
H503        H  0.98808258  0.61346853  0.30711673     0.09070
H504        H  0.01059736  0.54904413  0.33559369     0.07900
N505        N  0.65352937  0.39704167  0.99844182    -0.26480
N506        N  0.64429710  0.41667559  0.99106114    -0.34340
C507        C  0.65990369  0.43375488  0.99142234     0.01860
C508        C  0.68023437  0.42482160  0.99929094     0.07880
C509        C  0.67579332  0.40135712  0.00354409    -0.05220
H510        H  0.65641245  0.45173333  0.98709310     0.08550
H511        H  0.68756932  0.38869541  0.01056297     0.09750
Cu512      Cu  0.61015045  0.42201322  0.98485127     0.44170
Cu513      Cu  0.63306748  0.36683356  0.00291578     0.41990
Cu514      Cu  0.57754614  0.38846724  0.02290829     0.43880
N515        N  0.57709696  0.43068960  0.99361247    -0.33870
N516        N  0.56571429  0.41941025  0.00998216    -0.28120
C517        C  0.54564686  0.43018937  0.01407881    -0.04220
C518        C  0.54444910  0.44898542  0.99929100     0.07990
C519        C  0.56460905  0.44889626  0.98655909     0.01790
H520        H  0.53280243  0.42456549  0.02658712     0.09440
H521        H  0.57024864  0.46166125  0.97391473     0.08520
N522        N  0.58451836  0.35401744  0.01717298    -0.35320
N523        N  0.60376407  0.34548213  0.00823765    -0.27500
C524        C  0.59958108  0.32330238  0.00169202    -0.02740
C525        C  0.57668477  0.31805806  0.00686130     0.05870
C526        C  0.56791866  0.33794854  0.01659291     0.03970
H527        H  0.61172313  0.31240584  0.99247435     0.09070
H528        H  0.55010611  0.34128404  0.02103497     0.07900
N529        N  0.50329647  0.15492384  0.10417045    -0.26480
N530        N  0.51499457  0.14486979  0.08735249    -0.34340
C531        C  0.51589091  0.15886748  0.06889979     0.01860
C532        C  0.50351061  0.17887709  0.07345953     0.07880
C533        C  0.49599010  0.17594552  0.09636227    -0.05220
H534        H  0.52369187  0.15396996  0.05259184     0.08550
H535        H  0.48495635  0.18757712  0.10606526     0.09750
Cu536      Cu  0.52071424  0.10977953  0.08599064     0.44170
Cu537      Cu  0.49698153  0.13524163  0.13471569     0.41990
Cu538      Cu  0.47043234  0.08474324  0.11303367     0.43880
N539        N  0.50569289  0.07938437  0.07560854    -0.33870
N540        N  0.48568691  0.07174651  0.08362561    -0.28120
C541        C  0.47945936  0.05292714  0.07162699    -0.04220
C542        C  0.49647549  0.04868760  0.05543335     0.07990
C543        C  0.51281413  0.06569477  0.05835272     0.01790
H544        H  0.46418499  0.04265022  0.07503286     0.09440
H545        H  0.52846087  0.06827876  0.04835203     0.08520
N546        N  0.47793582  0.08824156  0.14731330    -0.35320
N547        N  0.49086393  0.10514234  0.15538097    -0.27500
C548        C  0.50013138  0.09762427  0.17543148    -0.02740
C549        C  0.49245029  0.07495626  0.17998129     0.05870
C550        C  0.47806150  0.07011726  0.16188602     0.03970
H551        H  0.51294546  0.10709887  0.18493088     0.09070
H552        H  0.47028484  0.05347365  0.15817366     0.07900
N553        N  0.39510162  0.65568481  0.99237655    -0.26480
N554        N  0.41148331  0.64684246  0.97907294    -0.34340
C555        C  0.42945705  0.66138643  0.97816641     0.01860
C556        C  0.42512238  0.68016953  0.99232629     0.07880
C557        C  0.40287166  0.67613374  0.00087926    -0.05220
H558        H  0.44574899  0.65714656  0.96999586     0.08550
H559        H  0.39387805  0.68624840  0.01383555     0.09750
Cu560      Cu  0.41497553  0.61189082  0.97222195     0.44170
Cu561      Cu  0.36502445  0.63602922  0.00025313     0.41990
Cu562      Cu  0.38749597  0.58339012  0.01982730     0.43880
N563        N  0.42674641  0.58118405  0.98634484    -0.33870
N564        N  0.41790956  0.57242333  0.00559521    -0.28120
C565        C  0.43035633  0.55406020  0.01221369    -0.04220
C566        C  0.44781321  0.55108363  0.99628799     0.07990
C567        C  0.44514074  0.56848802  0.98005595     0.01790
H568        H  0.42646462  0.54321279  0.02707355     0.09440
H569        H  0.45602353  0.57200503  0.96515647     0.08520
N570        N  0.35289362  0.58799370  0.01633440    -0.35320
N571        N  0.34366596  0.60677583  0.00713674    -0.27500
C572        C  0.32155948  0.60171301  0.00192432    -0.02740
C573        C  0.31704783  0.57874424  0.00851224     0.05870
C574        C  0.33738719  0.57080390  0.01741092     0.03970
H575        H  0.31009299  0.61329117  0.99287526     0.09070
H576        H  0.34127861  0.55311543  0.02243817     0.07900
N577        N  0.10674637  0.50726533  0.15409369    -0.26480
N578        N  0.09030836  0.52005846  0.14503352    -0.34340
C579        C  0.07226730  0.52106074  0.15956681     0.01860
C580        C  0.07673034  0.50759895  0.17874689     0.07880
C581        C  0.09903775  0.49926079  0.17483894    -0.05220
H582        H  0.05591379  0.52875624  0.15519961     0.08550
H583        H  0.10808703  0.48672910  0.18531487     0.09750
Cu584      Cu  0.08727120  0.52546530  0.11028302     0.44170
Cu585      Cu  0.13637050  0.49915843  0.13383365     0.41990
Cu586      Cu  0.11154366  0.47357982  0.08574706     0.43880
N587        N  0.07461411  0.50930883  0.08164158    -0.33870
N588        N  0.08195319  0.48884791  0.07436623    -0.28120
C589        C  0.06888681  0.48182868  0.05688740    -0.04220
C590        C  0.05260908  0.49873896  0.05312027     0.07990
C591        C  0.05660907  0.51590892  0.06903492     0.01790
H592        H  0.07155645  0.46600275  0.04718976     0.09440
H593        H  0.04690797  0.53176583  0.07160038     0.08520
N594        N  0.14623819  0.47912352  0.08730786    -0.35320
N595        N  0.15609195  0.49106134  0.10383305    -0.27500
C596        C  0.17722491  0.49775248  0.09607328    -0.02740
C597        C  0.18041467  0.48958945  0.07356335     0.05870
C598        C  0.16043302  0.47761808  0.06904065     0.03970
H599        H  0.18875170  0.50893930  0.10541967     0.09070
H600        H  0.15570228  0.46996841  0.05276620     0.07900
N601        N  0.99664653  0.39329697  0.34407637    -0.26480
N602        N  0.98105221  0.40930625  0.34911437    -0.34340
C603        C  0.98041288  0.42546497  0.33258739     0.01860
C604        C  0.99705139  0.42069852  0.31631751     0.07880
C605        C  0.00696925  0.39983113  0.32386714    -0.05220
H606        H  0.97082351  0.44153197  0.33409899     0.08550
H607        H  0.02166774  0.39114979  0.31620081     0.09750
Cu608      Cu  0.97030075  0.41809678  0.38133633     0.44170
Cu609      Cu  0.00271367  0.36476233  0.36749265     0.41990
Cu610      Cu  0.97207853  0.37788459  0.42098739     0.43880
N611        N  0.97794142  0.42745103  0.41407250    -0.33870
N612        N  0.97900995  0.41116973  0.42993099    -0.28120
C613        C  0.98661278  0.42032071  0.44958090    -0.04220
C614        C  0.99072206  0.44357552  0.44551795     0.07990
C615        C  0.98473287  0.44772783  0.42296846     0.01790
H616        H  0.98845124  0.41091068  0.46566171     0.09440
H617        H  0.98496555  0.46420379  0.41385523     0.08520
N618        N  0.98104741  0.34527861  0.41140137    -0.35320
N619        N  0.99646032  0.34033135  0.39519645    -0.27500
C620        C  0.00632127  0.31974149  0.40116171    -0.02740
C621        C  0.99609719  0.31174890  0.42176232     0.05870
C622        C  0.97991560  0.32828292  0.42706708     0.03970
H623        H  0.02101078  0.31217314  0.39236866     0.09070
H624        H  0.97071926  0.32980009  0.44335263     0.07900
N625        N  0.39534218  0.99721495  0.34191921    -0.26480
N626        N  0.41559298  0.99456916  0.35154162    -0.34340
C627        C  0.43237399  0.99508235  0.33571669     0.01860
C628        C  0.42291192  0.99735922  0.31430674     0.07880
C629        C  0.39912922  0.99886911  0.31871532    -0.05220
H630        H  0.45038716  0.99269430  0.33952388     0.08550
H631        H  0.38574140  0.00029110  0.30602898     0.09750
Cu632      Cu  0.42141241  0.98852861  0.38526224     0.44170
Cu633      Cu  0.36564957  0.99809377  0.36448002     0.41990
Cu634      Cu  0.38784872  0.02211168  0.41921278     0.43880
N635        N  0.42905508  0.99303502  0.41869860    -0.33870
N636        N  0.41759325  0.00819279  0.43124631    -0.28120
C637        C  0.42758670  0.01011149  0.45178032    -0.04220
C638        C  0.44601146  0.99505694  0.45188217     0.07990
C639        C  0.44666173  0.98459695  0.43067209     0.01790
H640        H  0.42211350  0.02179365  0.46536036     0.09440
H641        H  0.45985848  0.97319885  0.42381629     0.08520
N642        N  0.35479938  0.01150822  0.41448493    -0.35320
N643        N  0.34600604  0.00143763  0.39609925    -0.27500
C644        C  0.32473999  0.99352134  0.40229323    -0.02740
C645        C  0.32072252  0.99860613  0.42559346     0.05870
C646        C  0.34011957  0.01003016  0.43236507     0.03970
H647        H  0.31331105  0.98427412  0.39098372     0.09070
H648        H  0.34373021  0.01621588  0.44953849     0.07900
N649        N  0.39549598  0.34237858  0.00828041    -0.26480
N650        N  0.41373605  0.35322924  0.01603980    -0.34340
C651        C  0.43125690  0.33838326  0.01814010     0.01860
C652        C  0.42420706  0.31643195  0.01177403     0.07880
C653        C  0.40119804  0.31965268  0.00540956    -0.05220
H654        H  0.44861324  0.34367935  0.02207606     0.08550
H655        H  0.38990016  0.30674563  0.99825644     0.09750
Cu656      Cu  0.41652544  0.38847294  0.01691971     0.44170
Cu657      Cu  0.36630354  0.36305231  0.99991239     0.41990
Cu658      Cu  0.38773584  0.41404347  0.96941689     0.43880
N659        N  0.42626175  0.41910062  0.00204031    -0.33870
N660        N  0.41757805  0.42745463  0.98280220    -0.28120
C661        C  0.42951827  0.44652170  0.97643178    -0.04220
C662        C  0.44627436  0.45003158  0.99267980     0.07990
C663        C  0.44372936  0.43245221  0.00860745     0.01790
H664        H  0.42574611  0.45739395  0.96168116     0.09440
H665        H  0.45416490  0.42922200  0.02360080     0.08520
N666        N  0.35337380  0.40857453  0.97677108    -0.35320
N667        N  0.34535554  0.39209668  0.99069643    -0.27500
C668        C  0.32445962  0.39909221  0.99882229    -0.02740
C669        C  0.31926821  0.42085020  0.98930090     0.05870
C670        C  0.33794285  0.42576859  0.97515772     0.03970
H671        H  0.31478864  0.39014138  0.01215109     0.09070
H672        H  0.34145626  0.44226762  0.96673289     0.07900
C673        C  0.02031129  0.22802122  0.49894717    -0.04530
C674        C  0.01616082  0.20323715  0.49925698    -0.01650
C675        C  0.03423753  0.18719338  0.50196781     0.03340
C676        C  0.05706028  0.19361324  0.49705878    -0.04530
C677        C  0.06192919  0.21723692  0.49351845    -0.01640
C678        C  0.04421420  0.23432310  0.49508578     0.03340
C679        C  0.99503832  0.19256030  0.49164328     0.37990
C680        C  0.08549589  0.22405163  0.48835368     0.37980
C681        C  0.05193570  0.25811674  0.49276198     0.36400
C682        C  0.02895701  0.16350623  0.50919945     0.36400
N683        N  0.06046705  0.27615898  0.49038099    -0.38420
N684        N  0.02459398  0.14474842  0.51508737    -0.38420
N685        N  0.10428010  0.22948236  0.48433383    -0.37860
N686        N  0.97914478  0.18286852  0.48473434    -0.37870
C687        C  0.93497627  0.20514030  0.50593787    -0.04530
C688        C  0.93847198  0.21983520  0.48686649    -0.01650
C689        C  0.95733315  0.23573305  0.48605846     0.03340
C690        C  0.97527557  0.23484352  0.50318038    -0.04530
C691        C  0.96938291  0.22134314  0.52357912    -0.01640
C692        C  0.94892459  0.20814814  0.52518240     0.03340
C693        C  0.92287068  0.21810111  0.46765367     0.37990
C694        C  0.98497206  0.21798286  0.54257567     0.37980
C695        C  0.94306893  0.19574429  0.54641966     0.36400
C696        C  0.95610755  0.25330236  0.46821304     0.36400
N697        N  0.93849293  0.18568585  0.56317940    -0.38420
N698        N  0.95346062  0.26720168  0.45399595    -0.38420
N699        N  0.99597044  0.21377055  0.55851956    -0.37860
N700        N  0.91043773  0.21675847  0.45232963    -0.37870
C701        C  0.00077679  0.26194376  0.52498970    -0.04530
C702        C  0.98261184  0.27853492  0.52976889    -0.01650
C703        C  0.98275260  0.29286857  0.54956623     0.03340
C704        C  0.00096735  0.29198213  0.56503467    -0.04530
C705        C  0.01780873  0.27483604  0.56219066    -0.01640
C706        C  0.01775344  0.25964207  0.54291581     0.03340
C707        C  0.96457834  0.28350257  0.51348458     0.37990
C708        C  0.03575270  0.27328722  0.57930273     0.37980
C709        C  0.03490535  0.24144286  0.54349179     0.36400
C710        C  0.96472956  0.31003160  0.55327617     0.36400
N711        N  0.04867379  0.22709197  0.54559261    -0.38420
N712        N  0.95037784  0.32367736  0.55612379    -0.38420
N713        N  0.04993931  0.27210667  0.59302780    -0.37860
N714        N  0.94969309  0.28921016  0.50172510    -0.37870
C715        C  0.00379549  0.26433092  0.47941443    -0.04530
C716        C  0.00369984  0.25554492  0.45612170    -0.01650
C717        C  0.00283182  0.27082916  0.43671328     0.03340
C718        C  0.00442706  0.29491449  0.43958104    -0.04530
C719        C  0.01015588  0.30342169  0.46134974    -0.01640
C720        C  0.00984279  0.28876420  0.48101436     0.03340
C721        C  0.00300220  0.23092224  0.45122603     0.37990
C722        C  0.01698332  0.32771260  0.46332967     0.37980
C723        C  0.01873009  0.29951795  0.50162452     0.36400
C724        C  0.99868906  0.26188851  0.41382318     0.36400
N725        N  0.02669621  0.30886651  0.51720684    -0.38420
N726        N  0.99527021  0.25485387  0.39554901    -0.38420
N727        N  0.02255428  0.34694075  0.46496579    -0.37860
N728        N  0.00270587  0.21167594  0.44556339    -0.37870
C729        C  0.23172347  0.01768311  0.50048152    -0.04530
C730        C  0.23156851  0.03740040  0.51609119    -0.01650
C731        C  0.21643036  0.05640068  0.51295009     0.03340
C732        C  0.19743862  0.05437351  0.49867497    -0.04530
C733        C  0.19536857  0.03451014  0.48490365    -0.01640
C734        C  0.21263739  0.01709649  0.48473510     0.03340
C735        C  0.24314459  0.03786821  0.53804286     0.37990
C736        C  0.17536851  0.03219964  0.47036878     0.37980
C737        C  0.21058993  0.99930541  0.46721263     0.36400
C738        C  0.21902753  0.07751865  0.52638244     0.36400
N739        N  0.20809085  0.98589137  0.45266844    -0.38420
N740        N  0.22110902  0.09437142  0.53694908    -0.38420
N741        N  0.15941495  0.03026204  0.45885275    -0.37860
N742        N  0.25128444  0.03920388  0.55608369    -0.37870
C743        C  0.23327470  0.97361206  0.50288150    -0.04530
C744        C  0.23360583  0.95418081  0.48694489    -0.01650
C745        C  0.21788338  0.93543089  0.48932768     0.03340
C746        C  0.19929164  0.93672004  0.50472099    -0.04530
C747        C  0.19794701  0.95531998  0.52013779    -0.01640
C748        C  0.21485281  0.97302921  0.51992428     0.03340
C749        C  0.24693844  0.95360721  0.46569055     0.37990
C750        C  0.17881592  0.95615824  0.53650715     0.37980
C751        C  0.21290990  0.99007336  0.53820859     0.36400
C752        C  0.21948654  0.91533996  0.47423235     0.36400
N753        N  0.21022397  0.00260813  0.55353600    -0.38420
N754        N  0.22068870  0.89932042  0.46230428    -0.38420
N755        N  0.16361235  0.95687412  0.54954591    -0.37860
N756        N  0.25655868  0.95206883  0.44816523    -0.37870
C757        C  0.26677200  0.99823459  0.52265322    -0.04530
C758        C  0.26784017  0.98229313  0.54214217    -0.01650
C759        C  0.28316107  0.98609217  0.56067641     0.03340
C760        C  0.29957847  0.00388545  0.55956967    -0.04530
C761        C  0.29922040  0.01946832  0.54078630    -0.01640
C762        C  0.28377713  0.01651430  0.52245349     0.03340
C763        C  0.25620601  0.95999566  0.54296146     0.37990
C764        C  0.31458012  0.03947080  0.54065096     0.37980
C765        C  0.28498407  0.03395074  0.50426167     0.36400
C766        C  0.28299972  0.97056384  0.58052334     0.36400
N767        N  0.28693701  0.04856058  0.49059785    -0.38420
N768        N  0.28269283  0.95823550  0.59634209    -0.38420
N769        N  0.32686130  0.05529897  0.54046100    -0.37860
N770        N  0.24782336  0.94177360  0.54442785    -0.37870
C771        C  0.26676051  0.99550139  0.47896445    -0.04530
C772        C  0.28625692  0.97982155  0.47890480    -0.01650
C773        C  0.30312827  0.98012393  0.46099349     0.03340
C774        C  0.30055971  0.99422573  0.44138048    -0.04530
C775        C  0.28110969  0.00839971  0.43994621    -0.01640
C776        C  0.26566209  0.01081019  0.45901021     0.03340
C777        C  0.28908852  0.96200167  0.49644264     0.37990
C778        C  0.27812109  0.02222002  0.41915185     0.37980
C779        C  0.25165815  0.03158028  0.45802961     0.36400
C780        C  0.32341270  0.96548649  0.46264764     0.36400
N781        N  0.24151283  0.04879022  0.45620406    -0.38420
N782        N  0.33956518  0.95387302  0.46409639    -0.38420
N783        N  0.27576197  0.03308452  0.40252330    -0.37860
N784        N  0.29244606  0.94711653  0.50945116    -0.37870
C785        C  0.50469937  0.01944509  0.23042487    -0.04530
C786        C  0.50477799  0.04356275  0.23727560    -0.01650
C787        C  0.50195668  0.06192364  0.22088564     0.03340
C788        C  0.50055974  0.05715395  0.19724456    -0.04530
C789        C  0.50619863  0.03458263  0.18991952    -0.01640
C790        C  0.50899722  0.01617369  0.20598289     0.03340
C791        C  0.50702392  0.05060253  0.26100339     0.37990
C792        C  0.51084046  0.03055927  0.16553056     0.37980
C793        C  0.51947711  0.99539422  0.19642876     0.36400
C794        C  0.49893122  0.08569836  0.22859488     0.36400
N795        N  0.52852604  0.97966462  0.18790011    -0.38420
N796        N  0.49649483  0.10463902  0.23477611    -0.38420
N797        N  0.51470419  0.02723777  0.14621338    -0.37860
N798        N  0.50929191  0.05833035  0.27919680    -0.37870
C799        C  0.50239630  0.97367727  0.23555316    -0.04530
C800        C  0.51963629  0.95560025  0.23772487    -0.01650
C801        C  0.52022091  0.93618237  0.22257741     0.03340
C802        C  0.50353192  0.93316130  0.20572678    -0.04530
C803        C  0.48488898  0.94849567  0.20519926    -0.01640
C804        C  0.48408164  0.96831041  0.21970020     0.03340
C805        C  0.53647863  0.95476154  0.25578027     0.37990
C806        C  0.46706452  0.94464565  0.18830169     0.37980
C807        C  0.46502668  0.98396229  0.21570704     0.36400
C808        C  0.53855082  0.91907365  0.22389691     0.36400
N809        N  0.44923695  0.99509936  0.21089730    -0.38420
N810        N  0.55303708  0.90534972  0.22487181    -0.38420
N811        N  0.45288259  0.94170592  0.17484202    -0.37860
N812        N  0.54997890  0.95198493  0.26999844    -0.37870
C813        C  0.47754592  0.99718157  0.26245300    -0.04530
C814        C  0.45891470  0.01392877  0.26101526    -0.01650
C815        C  0.43983182  0.01325413  0.27682707     0.03340
C816        C  0.43714065  0.99492478  0.29263276    -0.04530
C817        C  0.45243787  0.97615973  0.29114931    -0.01640
C818        C  0.47286770  0.97770493  0.27771769     0.03340
C819        C  0.45736810  0.03152065  0.24325732     0.37990
C820        C  0.44788322  0.95555429  0.30520538     0.37980
C821        C  0.48966289  0.95984614  0.28261961     0.36400
C822        C  0.42308645  0.03194892  0.27737701     0.36400
N823        N  0.50143665  0.94483546  0.28856950    -0.38420
N824        N  0.40971844  0.04682923  0.27780588    -0.38420
N825        N  0.44436589  0.93928930  0.31652786    -0.37860
N826        N  0.45410820  0.04552435  0.22928734    -0.37870
C827        C  0.52263842  0.00199088  0.26712945    -0.04530
C828        C  0.54655867  0.00296678  0.25998372    -0.01650
C829        C  0.56469632  0.00098910  0.27622865     0.03340
C830        C  0.55990106  0.00042837  0.29993170    -0.04530
C831        C  0.53737340  0.00544162  0.30731300    -0.01640
C832        C  0.51900528  0.00644041  0.29151559     0.03340
C833        C  0.55369245  0.00487884  0.23611829     0.37990
C834        C  0.53328416  0.01073838  0.33154982     0.37980
C835        C  0.49753751  0.01499589  0.30129575     0.36400
C836        C  0.58827442  0.99760853  0.26846981     0.36400
N837        N  0.48124670  0.02252559  0.31015647    -0.38420
N838        N  0.60705294  0.99472008  0.26232906    -0.38420
N839        N  0.53002349  0.01512841  0.35075338    -0.37860
N840        N  0.56167753  0.00690686  0.21785382    -0.37870
C841        C  0.50284207  0.23182390  0.01832756    -0.04530
C842        C  0.50405636  0.23838802  0.04240900    -0.01650
C843        C  0.50246149  0.22143975  0.06064405     0.03340
C844        C  0.49901943  0.19775672  0.05587114    -0.04530
C845        C  0.49668244  0.19149699  0.03272180    -0.01640
C846        C  0.50347292  0.20695178  0.01514750     0.03340
C847        C  0.51309312  0.26050326  0.04958053     0.37990
C848        C  0.48860405  0.16848720  0.02657725     0.37980
C849        C  0.51679831  0.19605919  0.99681272     0.36400
C850        C  0.50621261  0.22816303  0.08440350     0.36400
N851        N  0.52774110  0.18666637  0.98290560    -0.38420
N852        N  0.50938489  0.23355226  0.10327574    -0.38420
N853        N  0.48194182  0.15026472  0.02158393    -0.37860
N854        N  0.52160085  0.27664812  0.05769635    -0.37870
C855        C  0.49356763  0.20220451  0.93599717    -0.04530
C856        C  0.51307865  0.21644484  0.93668396    -0.01650
C857        C  0.51676926  0.23162974  0.95549547     0.03340
C858        C  0.49963295  0.23431672  0.97366668    -0.04530
C859        C  0.47941908  0.21976688  0.97183889    -0.01640
C860        C  0.47646448  0.20453539  0.95309013     0.03340
C861        C  0.53084992  0.21332467  0.91906759     0.37990
C862        C  0.46151154  0.21971506  0.98964478     0.37980
C863        C  0.45588274  0.19032648  0.95173285     0.36400
C864        C  0.53996529  0.24068851  0.95682467     0.36400
N865        N  0.43946061  0.17906691  0.95060140    -0.38420
N866        N  0.55881678  0.24713336  0.95702368    -0.38420
N867        N  0.44724214  0.21951972  0.00373629    -0.37860
N868        N  0.54506047  0.21067954  0.90518845    -0.37870
C869        C  0.52560630  0.26484963  0.99520780    -0.04530
C870        C  0.52738340  0.28494358  0.98042000    -0.01650
C871        C  0.54530372  0.30133784  0.98298230     0.03340
C872        C  0.56225320  0.29803153  0.99964971    -0.04530
C873        C  0.56330176  0.27664440  0.01122401    -0.01640
C874        C  0.54597691  0.25962227  0.00812608     0.03340
C875        C  0.51185115  0.28899094  0.96158244     0.37990
C876        C  0.58219498  0.27231877  0.02672636     0.37980
C877        C  0.55106501  0.23646710  0.01656319     0.36400
C878        C  0.54611801  0.32210042  0.96861182     0.36400
N879        N  0.55614236  0.21836513  0.02364327    -0.38420
N880        N  0.54674783  0.33857484  0.95709910    -0.38420
N881        N  0.59728838  0.26891378  0.03906224    -0.37860
N882        N  0.50108219  0.29375749  0.94564003    -0.37870
C883        C  0.48102446  0.26782912  0.99846483    -0.04530
C884        C  0.46252571  0.27099202  0.98195923    -0.01650
C885        C  0.44271060  0.28475886  0.98729995     0.03340
C886        C  0.44064659  0.29635683  0.00851248    -0.04530
C887        C  0.45848887  0.29335754  0.02437324    -0.01640
C888        C  0.47959844  0.28373642  0.01718231     0.03340
C889        C  0.46406972  0.26358896  0.95808901     0.37990
C890        C  0.45680970  0.30359302  0.04714445     0.37980
C891        C  0.49863886  0.29922890  0.02135568     0.36400
C892        C  0.42487430  0.28784838  0.97026806     0.36400
N893        N  0.51292397  0.31272086  0.02480904    -0.38420
N894        N  0.41079520  0.29010494  0.95654799    -0.38420
N895        N  0.45553507  0.31188418  0.06523630    -0.37860
N896        N  0.46448587  0.25820220  0.93888369    -0.37870
C897        C  0.05888780  0.50039432  0.19644531    -0.04530
C898        C  0.06327155  0.50057767  0.22011828    -0.01650
C899        C  0.04510570  0.49741721  0.23661164     0.03340
C900        C  0.02126972  0.49640690  0.22982558    -0.04530
C901        C  0.01829480  0.49189108  0.20549625    -0.01640
C902        C  0.03678945  0.49395853  0.18941460     0.03340
C903        C  0.08644432  0.50559669  0.22764816     0.37990
C904        C  0.99768258  0.48171675  0.19613987     0.37980
C905        C  0.03343265  0.48758690  0.16542337     0.36400
C906        C  0.05219310  0.49614103  0.26033582     0.36400
N907        N  0.03069330  0.48224558  0.14646223    -0.38420
N908        N  0.06041495  0.49478423  0.27832963    -0.38420
N909        N  0.98219973  0.47268379  0.18769654    -0.37860
N910        N  0.10486081  0.50974000  0.23367730    -0.37870
C911        C  0.97574784  0.49676173  0.23563547    -0.04530
C912        C  0.96903723  0.51557628  0.22036655    -0.01650
C913        C  0.94882497  0.51450634  0.20696799     0.03340
C914        C  0.93536825  0.49438930  0.20671887    -0.04530
C915        C  0.93995360  0.47673056  0.22269079    -0.01640
C916        C  0.95890936  0.47824620  0.23788629     0.03340
C917        C  0.98345182  0.53564473  0.21581916     0.37990
C918        C  0.92495003  0.45651664  0.22312295     0.37980
C919        C  0.95880660  0.46103840  0.25612126     0.36400
C920        C  0.94259104  0.53373689  0.19192602     0.36400
N921        N  0.95670838  0.44716151  0.27051551    -0.38420
N922        N  0.93763244  0.54912271  0.18007788    -0.38420
N923        N  0.91294813  0.44047518  0.22334397    -0.37860
N924        N  0.99333208  0.55232772  0.21049969    -0.37870
C925        C  0.00492351  0.47690556  0.26646704    -0.04530
C926        C  0.00692015  0.45293469  0.25920661    -0.01650
C927        C  0.00594998  0.43419176  0.27542076     0.03340
C928        C  0.00515014  0.43856966  0.29910562    -0.04530
C929        C  0.00909025  0.46138571  0.30652027    -0.01640
C930        C  0.00930433  0.48025396  0.29074739     0.03340
C931        C  0.00881434  0.44630585  0.23528986     0.37990
C932        C  0.01387655  0.46531383  0.33077631     0.37980
C933        C  0.01733179  0.50197169  0.30024604     0.36400
C934        C  0.00388462  0.41033401  0.26769875     0.36400
N935        N  0.02489280  0.51848096  0.30851989    -0.38420
N936        N  0.00209566  0.39131276  0.26159271    -0.38420
N937        N  0.01780512  0.46845697  0.35000219    -0.37860
N938        N  0.01089572  0.43875638  0.21694294    -0.37870
C939        C  0.99832679  0.52242824  0.26188752    -0.04530
C940        C  0.97942508  0.52608256  0.27801585    -0.01650
C941        C  0.97789659  0.54622832  0.29193564     0.03340
C942        C  0.99532899  0.56297549  0.29149171    -0.04530
C943        C  0.01267743  0.56134008  0.27464359    -0.01640
C944        C  0.01385056  0.54206164  0.25934768     0.03340
C945        C  0.96222919  0.50849478  0.28303199     0.37990
C946        C  0.03008929  0.57945672  0.27377794     0.37980
C947        C  0.03054584  0.54452312  0.24082036     0.36400
C948        C  0.95905739  0.54893989  0.30848015     0.36400
N949        N  0.04372833  0.54842280  0.22618456    -0.38420
N950        N  0.94411244  0.55102048  0.32166701    -0.38420
N951        N  0.04391272  0.59391775  0.27321194    -0.37860
N952        N  0.94773698  0.49593545  0.28890495    -0.37870
C953        C  0.23347465  0.49557647  0.01883305    -0.04530
C954        C  0.23938132  0.49024605  0.04247772    -0.01650
C955        C  0.22228817  0.48886701  0.06038865     0.03340
C956        C  0.19920422  0.49422614  0.05602915    -0.04530
C957        C  0.19332412  0.50019686  0.03338600    -0.01640
C958        C  0.20903734  0.49681775  0.01502980     0.03340
C959        C  0.26263656  0.48551955  0.04952927     0.37990
C960        C  0.17051125  0.50911367  0.02850196     0.37980
C961        C  0.19821510  0.48870981  0.99422616     0.36400
C962        C  0.22849967  0.48193169  0.08356881     0.36400
N963        N  0.18832226  0.48150266  0.97864609    -0.38420
N964        N  0.23341222  0.47642437  0.10205695    -0.38420
N965        N  0.15245821  0.51639683  0.02450094    -0.37860
N966        N  0.28033288  0.48091651  0.05717282    -0.37870
C967        C  0.20884853  0.50477634  0.93530032    -0.04530
C968        C  0.22379466  0.48577759  0.93752635    -0.01650
C969        C  0.24045005  0.48514151  0.95536883     0.03340
C970        C  0.23993278  0.50191370  0.97395265    -0.04530
C971        C  0.22627976  0.52240472  0.96924285    -0.01640
C972        C  0.21236614  0.52409908  0.94950697     0.03340
C973        C  0.22160925  0.46641284  0.92178616     0.37990
C974        C  0.22389078  0.54152166  0.98527928     0.37980
C975        C  0.20020528  0.54564233  0.94454268     0.36400
C976        C  0.25861448  0.46827356  0.95217722     0.36400
N977        N  0.19037760  0.56267050  0.94066602    -0.38420
N978        N  0.27296242  0.45493999  0.94801619    -0.38420
N979        N  0.22061779  0.55759064  0.99677651    -0.37860
N980        N  0.21991515  0.45091530  0.90929137    -0.37870
C981        C  0.26674165  0.52333981  0.00034928    -0.04530
C982        C  0.28308244  0.52948939  0.98226698    -0.01650
C983        C  0.29764417  0.54918456  0.98392487     0.03340
C984        C  0.29708415  0.56328024  0.00350886    -0.04530
C985        C  0.28016582  0.55917986  0.02045246    -0.01640
C986        C  0.26468033  0.54009782  0.01882829     0.03340
C987        C  0.28712354  0.51492555  0.96232666     0.37990
C988        C  0.27912954  0.57469069  0.04012386     0.37980
C989        C  0.24634405  0.53980652  0.03591992     0.36400
C990        C  0.31449150  0.55426845  0.96584167     0.36400
N991        N  0.23189799  0.54130278  0.04974556    -0.38420
N992        N  0.32787783  0.55824452  0.95142691    -0.38420
N993        N  0.27838879  0.58709516  0.05574310    -0.37860
N994        N  0.29189066  0.50467537  0.94584738    -0.37870
C995        C  0.30192178  0.43882207  0.99689929    -0.04530
C996        C  0.27808006  0.43501524  0.99620337    -0.01650
C997        C  0.26228432  0.45387331  0.99890359     0.03340
C998        C  0.27011625  0.47760818  0.00037904    -0.04530
C999        C  0.29427440  0.47982902  0.00591661    -0.01640
C1000       C  0.30963332  0.46082708  0.00375044     0.03340
C1001       C  0.26977985  0.41183591  0.99121892     0.37990
C1002       C  0.30389412  0.49993074  0.01737867     0.37980
C1003       C  0.33360914  0.46356846  0.01017259     0.36400
C1004       C  0.23805448  0.44818586  0.99883181     0.36400
N1005       N  0.35257237  0.46581078  0.01548929    -0.38420
N1006       N  0.21907056  0.44221384  0.99889753    -0.38420
N1007       N  0.31242517  0.51500930  0.02724631    -0.37860
N1008       N  0.26316641  0.39335981  0.98713488    -0.37870
C1009       C  0.02155307  0.76443083  0.49834642    -0.04530
C1010       C  0.02232444  0.78375739  0.48226830    -0.01650
C1011       C  0.03998525  0.80067071  0.48280616     0.03340
C1012       C  0.05839505  0.79841449  0.49793813    -0.04530
C1013       C  0.05933534  0.77908900  0.51252597    -0.01640
C1014       C  0.04049690  0.76351497  0.51442171     0.03340
C1015       C  0.00572867  0.78654609  0.46402484     0.37990
C1016       C  0.07918729  0.77649971  0.52731595     0.37980
C1017       C  0.04045122  0.74982028  0.53545125     0.36400
C1018       C  0.03940411  0.82064177  0.46735115     0.36400
N1019       N  0.04142363  0.73994061  0.55284545    -0.38420
N1020       N  0.03886855  0.83650904  0.45503693    -0.38420
N1021       N  0.09503427  0.77448322  0.53897994    -0.37860
N1022       N  0.99364190  0.79003798  0.44873045    -0.37870
C1023       C  0.97798171  0.76508395  0.50029904    -0.04530
C1024       C  0.97753569  0.78288350  0.51783052    -0.01650
C1025       C  0.95958680  0.79945144  0.51922609     0.03340
C1026       C  0.94103901  0.79866880  0.50411734    -0.04530
C1027       C  0.94020454  0.78117301  0.48760130    -0.01640
C1028       C  0.95912787  0.76608003  0.48409700     0.03340
C1029       C  0.99470853  0.78413700  0.53569790     0.37990
C1030       C  0.92046474  0.78030086  0.47245931     0.37980
C1031       C  0.95946263  0.75537820  0.46151828     0.36400
C1032       C  0.95987080  0.81737479  0.53678991     0.36400
N1033       N  0.95877232  0.74795572  0.44302968    -0.38420
N1034       N  0.96007190  0.83155875  0.55084804    -0.38420
N1035       N  0.90477761  0.77964169  0.46044576    -0.37860
N1036       N  0.00749316  0.78612541  0.55065386    -0.37870
C1037       C  0.99814847  0.73115288  0.47644515    -0.04530
C1038       C  0.98029910  0.71371943  0.47544535    -0.01650
C1039       C  0.97802685  0.69899681  0.45621873     0.03340
C1040       C  0.99355625  0.70017889  0.43750045    -0.04530
C1041       C  0.01106582  0.71681406  0.43764843    -0.01640
C1042       C  0.01429910  0.73130012  0.45711157     0.03340
C1043       C  0.96263194  0.71127826  0.49321911     0.37990
C1044       C  0.02714682  0.71756708  0.41824468     0.37980
C1045       C  0.03622423  0.74328044  0.45723042     0.36400
C1046       C  0.95923650  0.68226480  0.45560107     0.36400
N1047       N  0.05418813  0.75194478  0.45642999    -0.38420
N1048       N  0.94436794  0.66891387  0.45522139    -0.38420
N1049       N  0.03992823  0.71811291  0.40280264    -0.37860
N1050       N  0.94774296  0.70813113  0.50628414    -0.37870
C1051       C  0.00001304  0.72924630  0.51998290    -0.04530
C1052       C  0.98414764  0.72898049  0.53954884    -0.01650
C1053       C  0.98681031  0.71306352  0.55807034     0.03340
C1054       C  0.00201805  0.69437545  0.55623513    -0.04530
C1055       C  0.01666502  0.69295890  0.53692735    -0.01640
C1056       C  0.01635597  0.71025650  0.51946862     0.03340
C1057       C  0.96268539  0.74173380  0.54044728     0.37990
C1058       C  0.03266440  0.67359453  0.53531438     0.37980
C1059       C  0.03429060  0.70849703  0.50193289     0.36400
C1060       C  0.97232821  0.71470165  0.57864350     0.36400
N1061       N  0.04932106  0.70588674  0.48894483    -0.38420
N1062       N  0.96091586  0.71599220  0.59506858    -0.38420
N1063       N  0.04542278  0.65821934  0.53400402    -0.37860
N1064       N  0.94497386  0.75079379  0.54208587    -0.37870
C1065       C  0.76771937  0.01934539  0.50011675    -0.04530
C1066       C  0.78578427  0.01937149  0.51703572    -0.01650
C1067       C  0.80220399  0.03754151  0.51807357     0.03340
C1068       C  0.80092367  0.05692484  0.50340665    -0.04530
C1069       C  0.78307082  0.05823458  0.48762440    -0.01640
C1070       C  0.76801871  0.03914093  0.48440476     0.03340
C1071       C  0.78756949  0.00147128  0.53464585     0.37990
C1072       C  0.78161967  0.07877939  0.47296439     0.37980
C1073       C  0.75631951  0.03977247  0.46252280     0.36400
C1074       C  0.82059957  0.03651113  0.53475131     0.36400
N1075       N  0.74805449  0.04128082  0.44454014    -0.38420
N1076       N  0.83519252  0.03565674  0.54806937    -0.38420
N1077       N  0.78048935  0.09513495  0.46135110    -0.37860
N1078       N  0.79006503  0.98817106  0.54942314    -0.37870
C1079       C  0.76775773  0.97529292  0.49738118    -0.04530
C1080       C  0.78648275  0.97536428  0.48070305    -0.01650
C1081       C  0.80325239  0.95754322  0.48020849     0.03340
C1082       C  0.80170187  0.93845639  0.49522493    -0.04530
C1083       C  0.78305665  0.93680145  0.51051507    -0.01640
C1084       C  0.76752891  0.95559754  0.51323268     0.03340
C1085       C  0.78874315  0.99309175  0.46292354     0.37990
C1086       C  0.78121667  0.91627930  0.52522837     0.37980
C1087       C  0.75477026  0.95485667  0.53485933     0.36400
C1088       C  0.82230700  0.95860479  0.46375910     0.36400
N1089       N  0.74567341  0.95325828  0.55267098    -0.38420
N1090       N  0.83741748  0.95944810  0.45061202    -0.38420
N1091       N  0.77978716  0.89993195  0.53685895    -0.37860
N1092       N  0.79165750  0.00625821  0.44803096    -0.37870
C1093       C  0.73396790  0.99896822  0.47666436    -0.04530
C1094       C  0.73436323  0.98353515  0.45689394    -0.01650
C1095       C  0.71975290  0.98722790  0.43776101     0.03340
C1096       C  0.70199756  0.00357144  0.43879376    -0.04530
C1097       C  0.70028176  0.01809634  0.45816006    -0.01640
C1098       C  0.71586595  0.01617711  0.47658070     0.03340
C1099       C  0.74660982  0.96160531  0.45628664     0.37990
C1100       C  0.68210632  0.03547410  0.45908860     0.37980
C1101       C  0.71333129  0.03340770  0.49463844     0.36400
C1102       C  0.72167246  0.97264241  0.41743513     0.36400
N1103       N  0.71013615  0.04789908  0.50805613    -0.38420
N1104       N  0.72323899  0.96111076  0.40121510    -0.38420
N1105       N  0.66757074  0.04917531  0.45995787    -0.37860
N1106       N  0.75543445  0.94361483  0.45491058    -0.37870
C1107       C  0.73308823  0.99550522  0.52029331    -0.04530
C1108       C  0.73284267  0.01085628  0.54009989    -0.01650
C1109       C  0.71751834  0.00714766  0.55899972     0.03340
C1110       C  0.69951891  0.99117546  0.55754790    -0.04530
C1111       C  0.69831068  0.97676777  0.53820283    -0.01640
C1112       C  0.71485703  0.97835906  0.52013216     0.03340
C1113       C  0.74500518  0.03281913  0.54093635     0.37990
C1114       C  0.67972827  0.95990735  0.53703701     0.37980
C1115       C  0.71314568  0.96092421  0.50224366     0.36400
C1116       C  0.71886233  0.02146020  0.57954276     0.36400
N1117       N  0.71064579  0.94624595  0.48895367    -0.38420
N1118       N  0.71988311  0.03275831  0.59593177    -0.38420
N1119       N  0.66497639  0.94646586  0.53608906    -0.37860
N1120       N  0.75366780  0.05085682  0.54253199    -0.37870
C1121       C  0.49972038  0.01967283  0.76671360    -0.04530
C1122       C  0.51684305  0.02005680  0.78458328    -0.01650
C1123       C  0.51775912  0.03811301  0.80100220     0.03340
C1124       C  0.50218256  0.05664227  0.80047663    -0.04530
C1125       C  0.48612922  0.05773913  0.78284591    -0.01640
C1126       C  0.48371280  0.03911098  0.76707597     0.03340
C1127       C  0.53499092  0.00284208  0.78609647     0.37990
C1128       C  0.47053792  0.07751083  0.78228474     0.37980
C1129       C  0.46242608  0.03980607  0.75441883     0.36400
C1130       C  0.53525837  0.03786640  0.81868701     0.36400
N1131       N  0.44480744  0.04133539  0.74549549    -0.38420
N1132       N  0.54922708  0.03766091  0.83268293    -0.38420
N1133       N  0.45816957  0.09324565  0.78186853    -0.37860
N1134       N  0.55039044  0.99041126  0.78861021    -0.37870
C1135       C  0.49230874  0.93904790  0.80184965    -0.04530
C1136       C  0.51024117  0.93846021  0.78553885    -0.01650
C1137       C  0.51315536  0.95669222  0.76905897     0.03340
C1138       C  0.49688052  0.97587230  0.76755043    -0.04530
C1139       C  0.47882707  0.97570105  0.78487603    -0.01640
C1140       C  0.47616593  0.95716117  0.80073260     0.03340
C1141       C  0.52682761  0.91957585  0.78668640     0.37990
C1142       C  0.46116171  0.99349185  0.78604575     0.37980
C1143       C  0.45583102  0.95625304  0.81565209     0.36400
C1144       C  0.53488742  0.95583022  0.75654896     0.36400
N1145       N  0.43969586  0.95555620  0.82751357    -0.38420
N1146       N  0.55276048  0.95419271  0.74767429    -0.38420
N1147       N  0.44611163  0.00644464  0.78835759    -0.37860
N1148       N  0.54009726  0.90462306  0.78745037    -0.37870
C1149       C  0.47685953  0.99855686  0.73263740    -0.04530
C1150       C  0.47659919  0.01569210  0.71429111    -0.01650
C1151       C  0.45839372  0.01696148  0.69833480     0.03340
C1152       C  0.43955674  0.00181910  0.69990039    -0.04530
C1153       C  0.43874746  0.98538550  0.71768311    -0.01640
C1154       C  0.45762565  0.98235025  0.73265261     0.03340
C1155       C  0.49413081  0.03350962  0.71186569     0.37990
C1156       C  0.41894345  0.96994066  0.71914380     0.37980
C1157       C  0.45742603  0.96018054  0.74466624     0.36400
C1158       C  0.45879701  0.03438271  0.68008397     0.36400
N1159       N  0.45636139  0.94195181  0.75318174    -0.38420
N1160       N  0.45910172  0.04832113  0.66563911    -0.38420
N1161       N  0.40319204  0.95768366  0.72024504    -0.37860
N1162       N  0.50699692  0.04856711  0.70869777    -0.37870
C1163       C  0.52041668  0.99587741  0.73269173    -0.04530
C1164       C  0.52102945  0.97790893  0.71539401    -0.01650
C1165       C  0.53956527  0.97580273  0.69956063     0.03340
C1166       C  0.55806975  0.99146320  0.69964996    -0.04530
C1167       C  0.55858946  0.00875649  0.71643721    -0.01640
C1168       C  0.53962180  0.01210981  0.73176486     0.03340
C1169       C  0.50353432  0.96001751  0.71393537     0.37990
C1170       C  0.57815952  0.02450139  0.71660808     0.37980
C1171       C  0.53977322  0.03437207  0.74338105     0.36400
C1172       C  0.53973949  0.95698679  0.68284323     0.36400
N1173       N  0.54076673  0.05260261  0.75168742    -0.38420
N1174       N  0.53981039  0.94212001  0.66948823    -0.38420
N1175       N  0.59375202  0.03698526  0.71678827    -0.37860
N1176       N  0.49087706  0.94478110  0.71127934    -0.37870
C1177       C  0.06216033  0.48926545  0.80215255    -0.04530
C1178       C  0.06257292  0.50785770  0.78641895    -0.01650
C1179       C  0.04427359  0.51140150  0.77069260     0.03340
C1180       C  0.02521986  0.49508280  0.76913850    -0.04530
C1181       C  0.02535965  0.47653132  0.78594904    -0.01640
C1182       C  0.04392722  0.47321051  0.80108544     0.03340
C1183       C  0.08144123  0.52440370  0.78725135     0.37990
C1184       C  0.00738218  0.45903414  0.78726000     0.37980
C1185       C  0.04475044  0.45211936  0.81504725     0.36400
C1186       C  0.04493880  0.53373939  0.75895642     0.36400
N1187       N  0.04529667  0.43535677  0.82613212    -0.38420
N1188       N  0.04629385  0.55198279  0.75050405    -0.38420
N1189       N  0.99420708  0.44411165  0.78959759    -0.37860
N1190       N  0.09638189  0.53767186  0.78767150    -0.37870
C1191       C  0.98178587  0.49843914  0.76945119    -0.04530
C1192       C  0.96215220  0.48269941  0.76950223    -0.01650
C1193       C  0.94355833  0.48539359  0.78532051     0.03340
C1194       C  0.94560809  0.49982867  0.80441644    -0.04530
C1195       C  0.96481488  0.51439374  0.80595477    -0.01640
C1196       C  0.98197603  0.51470426  0.78840319     0.03340
C1197       C  0.96116851  0.46109922  0.75680050     0.37990
C1198       C  0.96673465  0.52955389  0.82581521     0.37980
C1199       C  0.99895993  0.53305690  0.79011381     0.36400
C1200       C  0.92281679  0.47142745  0.78326807     0.36400
N1201       N  0.01124875  0.54859917  0.79278268    -0.38420
N1202       N  0.90627117  0.46043122  0.78162931    -0.38420
N1203       N  0.96834091  0.54156866  0.84163976    -0.37860
N1204       N  0.95932739  0.44326108  0.74784780    -0.37870
C1205       C  0.99676816  0.43893599  0.70059821    -0.04530
C1206       C  0.98158816  0.45797633  0.70111154    -0.01650
C1207       C  0.98438223  0.47636219  0.71690065     0.03340
C1208       C  0.00193756  0.47586460  0.73427345    -0.04530
C1209       C  0.01756241  0.45613334  0.73288525    -0.01640
C1210       C  0.01403776  0.43765673  0.71709270     0.03340
C1211       C  0.96192507  0.45816014  0.68581909     0.37990
C1212       C  0.03931744  0.45485720  0.74470355     0.37980
C1213       C  0.02935800  0.41767711  0.71687400     0.36400
C1214       C  0.96714084  0.49458649  0.71582281     0.36400
N1215       N  0.04156471  0.40180232  0.71687863    -0.38420
N1216       N  0.95242857  0.50792468  0.71371571    -0.38420
N1217       N  0.05721028  0.45290046  0.75299153    -0.37860
N1218       N  0.94636173  0.45840328  0.67362118    -0.37870
C1219       C  0.00913196  0.55545429  0.69966836    -0.04530
C1220       C  0.02568902  0.53777047  0.70112725    -0.01650
C1221       C  0.02363710  0.51969569  0.71757257     0.03340
C1222       C  0.00572456  0.51950877  0.73505186    -0.04530
C1223       C  0.98973550  0.53893362  0.73399896    -0.01640
C1224       C  0.99188767  0.55658320  0.71672941     0.03340
C1225       C  0.04567948  0.53847707  0.68571883     0.37990
C1226       C  0.96903253  0.54060539  0.74807951     0.37980
C1227       C  0.97530492  0.57545376  0.71570906     0.36400
C1228       C  0.04161648  0.50224125  0.71654148     0.36400
N1229       N  0.96208038  0.59045415  0.71506676    -0.38420
N1230       N  0.05702957  0.48974943  0.71414989    -0.38420
N1231       N  0.95193531  0.54286512  0.75827604    -0.37860
N1232       N  0.06149869  0.53894954  0.67342240    -0.37870
C1233       C  0.49905289  0.76600505  0.02182651    -0.04530
C1234       C  0.49469522  0.75899653  0.04550063    -0.01650
C1235       C  0.49293004  0.77560712  0.06367376     0.03340
C1236       C  0.49696394  0.79933965  0.05945777    -0.04530
C1237       C  0.50219219  0.80628871  0.03676121    -0.01640
C1238       C  0.49923283  0.79086741  0.01828906     0.03340
C1239       C  0.49183180  0.73494460  0.05230677     0.37990
C1240       C  0.51005527  0.82984872  0.03197375     0.37980
C1241       C  0.49105700  0.80214398  0.99756171     0.36400
C1242       C  0.48708703  0.76819612  0.08696937     0.36400
N1243       N  0.48382011  0.81217168  0.98192335    -0.38420
N1244       N  0.48248365  0.76230764  0.10555746    -0.38420
N1245       N  0.51649550  0.84849725  0.02800102    -0.37860
N1246       N  0.48894961  0.71643508  0.05969218    -0.37870
C1247       C  0.50407575  0.76088382  0.97672206    -0.04530
C1248       C  0.48728525  0.76011550  0.95846594    -0.01650
C1249       C  0.48790998  0.77659561  0.94005682     0.03340
C1250       C  0.50671191  0.79156674  0.93712150    -0.04530
C1251       C  0.52586239  0.78840372  0.95117597    -0.01640
C1252       C  0.52416385  0.77494425  0.97150027     0.03340
C1253       C  0.47020950  0.74203485  0.95621279     0.37990
C1254       C  0.54704619  0.80086171  0.94560818     0.37980
C1255       C  0.54267239  0.77839938  0.98763694     0.36400
C1256       C  0.46880444  0.77856478  0.92434306     0.36400
N1257       N  0.55809233  0.78255809  0.99930146    -0.38420
N1258       N  0.45354574  0.78006586  0.91185003    -0.38420
N1259       N  0.56378004  0.81094263  0.94127852    -0.37860
N1260       N  0.45668016  0.72780077  0.95257840    -0.37870
C1261       C  0.44315695  0.69720723  0.99997351    -0.04530
C1262       C  0.46525097  0.68915192  0.00544261    -0.01650
C1263       C  0.48392231  0.70474710  0.00774586     0.03340
C1264       C  0.48126155  0.72944317  0.00351664    -0.04530
C1265       C  0.45770063  0.73723180  0.00348266    -0.01640
C1266       C  0.43910977  0.72127499  0.00098093     0.03340
C1267       C  0.46854515  0.66450926  0.01029630     0.37990
C1268       C  0.45183256  0.76165752  0.00453091     0.37980
C1269       C  0.41591744  0.72981234  0.99777563     0.36400
C1270       C  0.50444672  0.69455147  0.01756496     0.36400
N1271       N  0.39742819  0.73663265  0.99516732    -0.38420
N1272       N  0.52002055  0.68560940  0.02606852    -0.38420
N1273       N  0.44565898  0.78073899  0.00558912    -0.37860
N1274       N  0.47127099  0.64498025  0.01428836    -0.37870
C1275       C  0.56763750  0.70541358  0.00065598    -0.04530
C1276       C  0.55343173  0.70661171  0.98142583    -0.01650
C1277       C  0.53251125  0.71897316  0.98237842     0.03340
C1278       C  0.52648741  0.73371558  0.00165760    -0.04530
C1279       C  0.54378993  0.73530061  0.01935363    -0.01640
C1280       C  0.56331939  0.72036727  0.01915564     0.03340
C1281       C  0.55946195  0.69293896  0.96116376     0.37990
C1282       C  0.54341157  0.75240554  0.03753334     0.37980
C1283       C  0.57887228  0.71974157  0.03850033     0.36400
C1284       C  0.51670492  0.71385767  0.96398545     0.36400
N1285       N  0.59128992  0.71921230  0.05389078    -0.38420
N1286       N  0.50547930  0.70809236  0.94874291    -0.38420
N1287       N  0.54481332  0.76594330  0.05213891    -0.37860
N1288       N  0.56418763  0.68196803  0.94513119    -0.37870
C1289       C  0.80274040  0.50354709  0.06077841    -0.04530
C1290       C  0.78757580  0.48457495  0.06023653    -0.01650
C1291       C  0.77159426  0.48196110  0.04199162     0.03340
C1292       C  0.76973698  0.49919631  0.02369252    -0.04530
C1293       C  0.78614822  0.51799773  0.02468843    -0.01640
C1294       C  0.80115588  0.52061661  0.04343562     0.03340
C1295       C  0.78922522  0.46681541  0.07804756     0.37990
C1296       C  0.78705208  0.53653526  0.00762286     0.37980
C1297       C  0.81434743  0.54203010  0.04548995     0.36400
C1298       C  0.75966852  0.45981285  0.04189614     0.36400
N1299       N  0.82479079  0.55905805  0.04706409    -0.38420
N1300       N  0.75107034  0.44165391  0.04259802    -0.38420
N1301       N  0.78912459  0.55228606  0.99529289    -0.37860
N1302       N  0.79037061  0.45259332  0.09215809    -0.37870
C1303       C  0.77007271  0.49820327  0.98022943    -0.04530
C1304       C  0.78893106  0.48176693  0.97953589    -0.01650
C1305       C  0.80626572  0.48270905  0.96218007     0.03340
C1306       C  0.80497354  0.49866870  0.94396123    -0.04530
C1307       C  0.78627656  0.51380277  0.94297169    -0.01640
C1308       C  0.77015304  0.51513659  0.96149121     0.03340
C1309       C  0.79055826  0.46243760  0.99559045     0.37990
C1310       C  0.78484676  0.52964359  0.92339295     0.37980
C1311       C  0.75687818  0.53644449  0.96145891     0.36400
C1312       C  0.82561466  0.46672367  0.96279091     0.36400
N1313       N  0.74751584  0.55417415  0.96042744    -0.38420
N1314       N  0.84099171  0.45399341  0.96329743    -0.38420
N1315       N  0.78374106  0.54217995  0.90779582    -0.37860
N1316       N  0.79310383  0.44618431  0.00709971    -0.37870
C1317       C  0.70128438  0.43905470  0.00294688    -0.04530
C1318       C  0.70111868  0.45617052  0.01997795    -0.01650
C1319       C  0.71794246  0.47397700  0.02009096     0.03340
C1320       C  0.73595326  0.47549258  0.00267863    -0.04530
C1321       C  0.73551835  0.45722444  0.98540897    -0.01640
C1322       C  0.71900242  0.43899054  0.98645649     0.03340
C1323       C  0.68328972  0.45527125  0.03778999     0.37990
C1324       C  0.74911313  0.45754083  0.96428953     0.37980
C1325       C  0.71899639  0.42074867  0.96916233     0.36400
C1326       C  0.71643032  0.48991523  0.03932772     0.36400
N1327       N  0.71890132  0.40624632  0.95542398    -0.38420
N1328       N  0.71380705  0.50122317  0.05557646    -0.38420
N1329       N  0.75891168  0.45687683  0.94679990    -0.37860
N1330       N  0.66918152  0.45450079  0.05201925    -0.37870
C1331       C  0.73475222  0.51946083  0.00173329    -0.04530
C1332       C  0.71708778  0.52019577  0.98442536    -0.01650
C1333       C  0.70105110  0.53866304  0.98326497     0.03340
C1334       C  0.70166901  0.55714066  0.99889226    -0.04530
C1335       C  0.71846891  0.55725945  0.01583866    -0.01640
C1336       C  0.73359652  0.53811693  0.01855680     0.03340
C1337       C  0.71569388  0.50315056  0.96614265     0.37990
C1338       C  0.71873938  0.57651906  0.03201077     0.37980
C1339       C  0.74464674  0.53740124  0.04079456     0.36400
C1340       C  0.68385024  0.53904762  0.96530177     0.36400
N1341       N  0.75241934  0.53770865  0.05905436    -0.38420
N1342       N  0.67023901  0.53940018  0.95095933    -0.38420
N1343       N  0.71892859  0.59181928  0.04486963    -0.37860
N1344       N  0.71339770  0.49070086  0.95074734    -0.37870
loop_ 
_geom_bond_atom_site_label_1 
_geom_bond_atom_site_label_2 
_geom_bond_distance 
_geom_bond_site_symmetry_2 
_ccdc_geom_bond_type 
C1         C1292   1.614       .  S
C1         C1303   1.616   1_554  S
C1         C1320   1.616       .  S
C1         C1331   1.615       .  S
C2         C1233   1.617       .  S
C2         C1247   1.615   1_554  S
C2         C1264   1.615       .  S
C2         C1278   1.609       .  S
C3         C1180   1.615       .  S
C3         C1191   1.617   1_455  S
C3         C1208   1.616       .  S
C3         C1222   1.613       .  S
C4         C1121   1.614   1_565  S
C4         C1138   1.613       .  S
C4         C1149   1.618       .  S
C4         C1163   1.611       .  S
C5         C1065   1.616   1_565  S
C5         C1079   1.612       .  S
C5         C1093   1.614       .  S
C5         C1107   1.613       .  S
C6         C1009   1.612   1_655  S
C6         C1023   1.612       .  S
C6         C1037   1.608       .  S
C6         C1051   1.614   1_655  S
C7          C953   1.622   1_556  S
C7          C970   1.621       .  S
C7          C981   1.612   1_556  S
C7          C998   1.619   1_556  S
O8          Cu16   1.980   1_655  S
O8           C18   1.275       .  A
O9          Cu16   1.998   1_556  S
O9           C19   1.275       .  A
O10         Cu16   1.988   1_656  S
O10          C20   1.275       .  A
O11         Cu16   1.986       .  S
O11          C21   1.275       .  A
O12         Cu17   1.989       .  S
O12          C21   1.275       .  A
O13         Cu17   1.990   1_656  S
O13          C20   1.275       .  A
O14         Cu17   1.977   1_556  S
O14          C19   1.274       .  A
O15         Cu17   1.996   1_655  S
O15          C18   1.275       .  A
Cu16        Cu17   2.382       .  S
C18          C60   1.449       .  S
C19          C84   1.447       .  S
C20          C35   1.449       .  S
C21         C590   1.451       .  S
N22          N23   1.322       .  A
N22          C26   1.355       .  A
N22         Cu30   2.110       .  S
N23          C24   1.338       .  A
N23         Cu29   2.045       .  S
C24          C25   1.373       .  A
C24          H27   1.083       .  S
C25        C1194   1.489       .  S
C25          C26   1.393       .  A
C26          H28   1.082       .  S
Cu29         N32   2.044       .  S
Cu30         N40   2.110       .  S
Cu31         N33   2.045       .  S
Cu31         N39   2.046       .  S
N32          N33   1.319       .  A
N32          C36   1.340       .  A
N33          C34   1.340       .  A
C34          C35   1.378       .  A
C34          H37   1.083       .  S
C35          C36   1.378       .  A
C36          H38   1.083       .  S
N39          N40   1.323       .  A
N39          C43   1.338       .  A
N40          C41   1.355       .  A
C41          C42   1.393       .  A
C41          H44   1.083       .  S
C42        C1306   1.488       .  S
C42          C43   1.373       .  A
C43          H45   1.083       .  S
C46         C900   1.622       .  S
C46         C911   1.620   1_455  S
C46         C925   1.621       .  S
C46         C939   1.618   1_455  S
N47          N48   1.325       .  A
N47          C51   1.359       .  A
N47         Cu55   2.130       .  S
N48          C49   1.338       .  A
N48         Cu54   2.060       .  S
C49          C50   1.375       .  A
C49          H52   1.069       .  S
C50         C914   1.496       .  S
C50          C51   1.397       .  A
C51          H53   1.081       .  S
Cu54         N57   2.057       .  S
Cu55         N65   2.126       .  S
Cu56         N58   2.024       .  S
Cu56         N64   2.027       .  S
N57          N58   1.317       .  A
N57          C61   1.344       .  A
N58          C59   1.336       .  A
C59          C60   1.374       .  A
C59          H62   1.083       .  S
C60          C61   1.383       .  A
C61          H63   1.083       .  S
N64          N65   1.319       .  A
N64          C68   1.332       .  A
N65          C66   1.360       .  A
C66          C67   1.404       .  A
C66          H69   1.082       .  S
C67        C1289   1.506       .  S
C67          C68   1.376       .  A
C68          H70   1.083       .  S
N71          N72   1.320       .  A
N71          C75   1.361       .  A
N71         Cu79   2.138       .  S
N72          C73   1.331       .  A
N72         Cu78   2.024       .  S
C73          C74   1.374       .  A
C73          H76   1.083       .  S
C74        C1177   1.507       .  S
C74          C75   1.406       .  A
C75          H77   1.082       .  S
Cu78         N81   2.023       .  S
Cu79         N89   2.141       .  S
Cu80         N82   2.044       .  S
Cu80         N88   2.050       .  S
N81          N82   1.315       .  A
N81          C85   1.336       .  A
N82          C83   1.343       .  A
C83          C84   1.382       .  A
C83          H86   1.083       .  S
C84          C85   1.375       .  A
C85          H87   1.083       .  S
N88          N89   1.324       .  A
N88          C92   1.333       .  A
N89          C90   1.362       .  A
C90          C91   1.402       .  A
C90          H93   1.083       .  S
C91         C967   1.505       .  S
C91          C92   1.375       .  A
C92          H94   1.084       .  S
O95        Cu103   1.985       .  S
O95         C105   1.274   1_554  A
O96        Cu103   1.997       .  S
O96         C106   1.277   1_554  A
O97        Cu103   1.969       .  S
O97         C107   1.273   1_554  A
O98        Cu103   1.982       .  S
O98         C108   1.273       .  A
O99        Cu104   1.984       .  S
O99         C108   1.274   1_556  A
O100       Cu104   2.007       .  S
O100        C107   1.277       .  A
O101       Cu104   1.990       .  S
O101        C106   1.275       .  A
O102       Cu104   2.002       .  S
O102        C105   1.277       .  A
Cu103      Cu104   2.384   1_554  S
C105        C518   1.452       .  S
C106        C566   1.454       .  S
C107        C662   1.450       .  S
C108        C122   1.440       .  S
N109        N110   1.326       .  A
N109        C113   1.359   1_554  A
N109       Cu117   2.138       .  S
N110        C111   1.333       .  A
N110       Cu116   2.036       .  S
C111        C112   1.366       .  A
C111        H114   1.084       .  S
C112       C1334   1.488   1_554  S
C112        C113   1.397   1_554  A
C113        H115   1.082       .  S
Cu116       N119   2.035       .  S
Cu117       N127   2.135       .  S
Cu118       N120   2.013   1_556  S
Cu118       N126   2.014   1_556  S
N119        N120   1.313       .  A
N119        C123   1.340       .  A
N120        C121   1.337   1_554  A
C121        C122   1.374   1_556  A
C121        H124   1.083       .  S
C122        C123   1.379       .  A
C123        H125   1.083       .  S
N126        N127   1.321       .  A
N126        C130   1.328       .  A
N127        C128   1.362       .  A
C128        C129   1.401       .  A
C128        H131   1.082       .  S
C129       C1275   1.489       .  S
C129        C130   1.367       .  A
C130        H132   1.083       .  S
C133        C841   1.638   1_556  S
C133        C858   1.603       .  S
C133        C869   1.595       .  S
C133        C883   1.634       .  S
O134       Cu142   1.983       .  S
O134        C144   1.274       .  A
O135       Cu142   1.978   1_546  S
O135        C145   1.273       .  A
O136       Cu142   1.977   1_556  S
O136        C146   1.274       .  A
O137       Cu142   2.000   1_545  S
O137        C147   1.276       .  A
O138       Cu143   1.980   1_545  S
O138        C147   1.274       .  A
O139       Cu143   1.992   1_556  S
O139        C146   1.275       .  A
O140       Cu143   1.989   1_546  S
O140        C145   1.275       .  A
O141       Cu143   1.988       .  S
O141        C144   1.276       .  A
Cu142      Cu143   2.383       .  S
C144        C186   1.449       .  S
C145        C210   1.442       .  S
C146        C161   1.443       .  S
C147        C542   1.452       .  S
N148        N149   1.322       .  A
N148        C152   1.359       .  A
N148       Cu156   2.126       .  S
N149        C150   1.330       .  A
N149       Cu155   2.024       .  S
C150        C151   1.371       .  A
C150        H153   1.083       .  S
C151       C1135   1.498       .  S
C151        C152   1.402       .  A
C152        H154   1.083       .  S
Cu155       N158   2.023       .  S
Cu156       N166   2.127       .  S
Cu157       N159   2.033       .  S
Cu157       N165   2.038       .  S
N158        N159   1.313       .  A
N158        C162   1.336       .  A
N159        C160   1.341       .  A
C160        C161   1.379       .  A
C160        H163   1.083       .  S
C161        C162   1.376       .  A
C162        H164   1.083       .  S
N165        N166   1.324       .  A
N165        C169   1.330       .  A
N166        C167   1.360       .  A
C167        C168   1.399       .  A
C167        H170   1.083       .  S
C168       C1250   1.494       .  S
C168        C169   1.371       .  A
C169        H171   1.084       .  S
C172        C785   1.622   1_565  S
C172        C799   1.620       .  S
C172        C813   1.620       .  S
C172        C827   1.624   1_565  S
N173        N174   1.321       .  A
N173        C177   1.358       .  A
N173       Cu181   2.127       .  S
N174        C175   1.338       .  A
N174       Cu180   2.042       .  S
C175        C176   1.375       .  A
C175        H178   1.081       .  S
C176        C802   1.497       .  S
C176        C177   1.398       .  A
C177        H179   1.082       .  S
Cu180       N183   2.042       .  S
Cu181       N191   2.127       .  S
Cu182       N184   2.054       .  S
Cu182       N190   2.052       .  S
N183        N184   1.321       .  A
N183        C187   1.339       .  A
N184        C185   1.341       .  A
C185        C186   1.379       .  A
C185        H188   1.083       .  S
C186        C187   1.376       .  A
C187        H189   1.083       .  S
N190        N191   1.321       .  A
N190        C194   1.338       .  A
N191        C192   1.359       .  A
C192        C193   1.400       .  A
C192        H195   1.082       .  S
C193       C1236   1.506       .  S
C193        C194   1.380       .  A
C194        H196   1.083       .  S
N197        N198   1.325       .  A
N197        C201   1.357       .  A
N197       Cu205   2.127       .  S
N198        C199   1.335       .  A
N198       Cu204   2.039       .  S
C199        C200   1.369       .  A
C199        H202   1.083       .  S
C200       C1124   1.489       .  S
C200        C201   1.396       .  A
C201        H203   1.083       .  S
Cu204       N207   2.038       .  S
Cu205       N215   2.125       .  S
Cu206       N208   2.025       .  S
Cu206       N214   2.028       .  S
N207        N208   1.316       .  A
N207        C211   1.339       .  A
N208        C209   1.339       .  A
C209        C210   1.375       .  A
C209        H212   1.083       .  S
C210        C211   1.378       .  A
C211        H213   1.083       .  S
N214        N215   1.323       .  A
N214        C218   1.333       .  A
N215        C216   1.358       .  A
C216        C217   1.397       .  A
C216        H219   1.083       .  S
C217        C855   1.487       .  S
C217        C218   1.368       .  A
C218        H220   1.084       .  S
O221       Cu229   1.999       .  S
O221        C231   1.276   1_455  A
O222       Cu229   2.018       .  S
O222        C232   1.280   1_455  A
O223       Cu229   1.955       .  S
O223        C233   1.270   1_455  A
O224       Cu229   1.961       .  S
O224        C234   1.270       .  A
O225       Cu230   1.980       .  S
O225        C234   1.275   1_655  A
O226       Cu230   1.996       .  S
O226        C233   1.277       .  A
O227       Cu230   1.964       .  S
O227        C232   1.271       .  A
O228       Cu230   1.968       .  S
O228        C231   1.272       .  A
Cu229      Cu230   2.387   1_455  S
C231        C614   1.441       .  S
C232        C248   1.450   1_655  S
C233        C422   1.438       .  S
C234        C494   1.430       .  S
N235        N236   1.320       .  A
N235        C239   1.359       .  A
N235       Cu243   2.120       .  S
N236        C237   1.331       .  A
N236       Cu242   2.030       .  S
C237        C238   1.375       .  A
C237        H240   1.083       .  S
C238       C1219   1.502       .  S
C238        C239   1.402       .  A
C239        H241   1.083       .  S
Cu242       N245   2.026       .  S
Cu243       N253   2.124   1_455  S
Cu244       N246   2.049       .  S
Cu244       N252   2.049       .  S
N245        N246   1.316   1_455  A
N245        C249   1.340       .  A
N246        C247   1.339       .  A
C247        C248   1.382   1_655  A
C247        H250   1.083       .  S
C248        C249   1.376       .  A
C249        H251   1.083       .  S
N252        N253   1.326       .  A
N252        C256   1.337       .  A
N253        C254   1.356   1_655  A
C254        C255   1.394   1_455  A
C254        H257   1.083       .  S
C255       C1054   1.489   1_655  S
C255        C256   1.370       .  A
C256        H258   1.084       .  S
O259       Cu267   1.987       .  S
O259        C269   1.276   1_545  A
O260       Cu267   1.987       .  S
O260        C270   1.276   1_545  A
O261       Cu267   1.963       .  S
O261        C271   1.271   1_545  A
O262       Cu267   1.967       .  S
O262        C272   1.271   1_545  A
O263       Cu268   1.990       .  S
O263        C272   1.276       .  A
O264       Cu268   1.988       .  S
O264        C271   1.276       .  A
O265       Cu268   1.967       .  S
O265        C270   1.271       .  A
O266       Cu268   1.968       .  S
O266        C269   1.272       .  A
Cu267      Cu268   2.389   1_545  S
C269        C398   1.438       .  S
C270        C470   1.436       .  S
C271        C638   1.437       .  S
C272        C286   1.437       .  S
N273        N274   1.327   1_565  A
N273        C277   1.359       .  A
N273       Cu281   2.140       .  S
N274        C275   1.333       .  A
N274       Cu280   2.037       .  S
C275        C276   1.365   1_545  A
C275        H278   1.084       .  S
C276       C1110   1.487       .  S
C276        C277   1.397       .  A
C277        H279   1.082       .  S
Cu280       N283   2.036       .  S
Cu281       N291   2.135       .  S
Cu282       N284   2.003       .  S
Cu282       N290   2.003       .  S
N283        N284   1.312   1_545  A
N283        C287   1.340       .  A
N284        C285   1.334       .  A
C285        C286   1.372       .  A
C285        H288   1.083       .  S
C286        C287   1.380   1_565  A
C287        H289   1.083       .  S
N290        N291   1.320       .  A
N290        C294   1.328       .  A
N291        C292   1.360       .  A
C292        C293   1.402       .  A
C292        H295   1.082       .  S
C293       C1166   1.490       .  S
C293        C294   1.366       .  A
C294        H296   1.083       .  S
C297        C729   1.619   1_565  S
C297        C743   1.612       .  S
C297        C757   1.611       .  S
C297        C771   1.620       .  S
O298       Cu306   1.988       .  S
O298        C308   1.275       .  A
O299       Cu306   1.985   1_645  S
O299        C309   1.275       .  A
O300       Cu306   1.983   1_655  S
O300        C310   1.274       .  A
O301       Cu306   1.982   1_545  S
O301        C311   1.275       .  A
O302       Cu307   1.986   1_545  S
O302        C311   1.275       .  A
O303       Cu307   1.982   1_655  S
O303        C310   1.275       .  A
O304       Cu307   1.983   1_645  S
O304        C309   1.274       .  A
O305       Cu307   1.982       .  S
O305        C308   1.274       .  A
Cu306      Cu307   2.376       .  S
C308        C374   1.446       .  S
C309        C350   1.445       .  S
C310        C325   1.444       .  S
C311        C446   1.447       .  S
N312        N313   1.322       .  A
N312        C316   1.355       .  A
N312       Cu320   2.108       .  S
N313        C314   1.336       .  A
N313       Cu319   2.035       .  S
C314        C315   1.371       .  A
C314        H317   1.083       .  S
C315       C1026   1.484       .  S
C315        C316   1.394       .  A
C316        H318   1.083       .  S
Cu319       N322   2.033       .  S
Cu320       N330   2.109       .  S
Cu321       N323   2.040       .  S
Cu321       N329   2.043       .  S
N322        N323   1.318       .  A
N322        C326   1.338       .  A
N323        C324   1.339       .  A
C324        C325   1.378       .  A
C324        H327   1.083       .  S
C325        C326   1.376       .  A
C326        H328   1.083       .  S
N329        N330   1.323       .  A
N329        C333   1.337       .  A
N330        C331   1.355       .  A
C331        C332   1.393       .  A
C331        H334   1.083       .  S
C332       C1082   1.486       .  S
C332        C333   1.372       .  A
C333        H335   1.083       .  S
C336        C673   1.618       .  S
C336        C690   1.619   1_455  S
C336        C701   1.612       .  S
C336        C715   1.617       .  S
N337        N338   1.325       .  A
N337        C341   1.358       .  A
N337       Cu345   2.133       .  S
N338        C339   1.337       .  A
N338       Cu344   2.043       .  S
C339        C340   1.370       .  A
C339        H342   1.083       .  S
C340       C1068   1.491       .  S
C340        C341   1.397       .  A
C341        H343   1.082       .  S
Cu344       N347   2.040       .  S
Cu345       N355   2.130       .  S
Cu346       N348   2.030       .  S
Cu346       N354   2.033       .  S
N347        N348   1.316       .  A
N347        C351   1.340       .  A
N348        C349   1.338       .  A
C349        C350   1.376       .  A
C349        H352   1.083       .  S
C350        C351   1.379       .  A
C351        H353   1.083       .  S
N354        N355   1.321       .  A
N354        C358   1.332       .  A
N355        C356   1.362       .  A
C356        C357   1.402       .  A
C356        H359   1.082       .  S
C357        C687   1.500       .  S
C357        C358   1.374       .  A
C358        H360   1.083       .  S
N361        N362   1.322       .  A
N361        C365   1.355       .  A
N361       Cu369   2.109       .  S
N362        C363   1.338       .  A
N362       Cu368   2.043       .  S
C363        C364   1.373       .  A
C363        H366   1.083       .  S
C364       C1012   1.487       .  S
C364        C365   1.393       .  A
C365        H367   1.083       .  S
Cu368       N371   2.041       .  S
Cu369       N379   2.109       .  S
Cu370       N372   2.040       .  S
Cu370       N378   2.042       .  S
N371        N372   1.319       .  A
N371        C375   1.340       .  A
N372        C373   1.338       .  A
C373        C374   1.377       .  A
C373        H376   1.083       .  S
C374        C375   1.377       .  A
C375        H377   1.083       .  S
N378        N379   1.322       .  A
N378        C382   1.338       .  A
N379        C380   1.355       .  A
C380        C381   1.393       .  A
C380        H383   1.082       .  S
C381        C746   1.487       .  S
C381        C382   1.373       .  A
C382        H384   1.083       .  S
N385        N386   1.327       .  A
N385        C389   1.360   1_565  A
N385       Cu393   2.144   1_565  S
N386        C387   1.335       .  A
N386       Cu392   2.042       .  S
C387        C388   1.367       .  A
C387        H390   1.083       .  S
C388       C1152   1.491   1_565  S
C388        C389   1.398   1_565  A
C389        H391   1.082       .  S
Cu392       N395   2.040       .  S
Cu393       N403   2.138       .  S
Cu394       N396   2.007       .  S
Cu394       N402   2.008       .  S
N395        N396   1.314   1_565  A
N395        C399   1.340       .  A
N396        C397   1.335       .  A
C397        C398   1.372   1_545  A
C397        H400   1.086       .  S
C398        C399   1.381       .  A
C399        H401   1.085       .  S
N402        N403   1.319       .  A
N402        C406   1.329       .  A
N403        C404   1.362       .  A
C404        C405   1.407       .  A
C404        H407   1.083       .  S
C405        C760   1.500       .  S
C405        C406   1.370       .  A
C406        H408   1.084       .  S
N409        N410   1.319       .  A
N409        C413   1.360       .  A
N409       Cu417   2.134       .  S
N410        C411   1.328       .  A
N410       Cu416   2.007       .  S
C411        C412   1.370       .  A
C411        H414   1.083       .  S
C412       C1205   1.500       .  S
C412        C413   1.405       .  A
C413        H415   1.083   1_655  S
Cu416       N419   2.003       .  S
Cu417       N427   2.139   1_655  S
Cu418       N420   2.045       .  S
Cu418       N426   2.044       .  S
N419        N420   1.314   1_655  A
N419        C423   1.337       .  A
N420        C421   1.338       .  A
C421        C422   1.381   1_455  A
C421        H424   1.083       .  S
C422        C423   1.372       .  A
C423        H425   1.083       .  S
N426        N427   1.326       .  A
N426        C430   1.335       .  A
N427        C428   1.360   1_455  A
C428        C429   1.397   1_655  A
C428        H431   1.083       .  S
C429        C704   1.492       .  S
C429        C430   1.369       .  A
C430        H432   1.081       .  S
N433        N434   1.321       .  A
N433        C437   1.357       .  A
N433       Cu441   2.117       .  S
N434        C435   1.338       .  A
N434       Cu440   2.048       .  S
C435        C436   1.379       .  A
C435        H438   1.083       .  S
C436        C676   1.503       .  S
C436        C437   1.399       .  A
C437        H439   1.083       .  S
Cu440       N443   2.051       .  S
Cu441       N451   2.117       .  S
Cu442       N444   2.036       .  S
Cu442       N450   2.037       .  S
N443        N444   1.321       .  A
N443        C447   1.340       .  A
N444        C445   1.338       .  A
C445        C446   1.375       .  A
C445        H448   1.083       .  S
C446        C447   1.378       .  A
C447        H449   1.083       .  S
N450        N451   1.321       .  A
N450        C454   1.339       .  A
N451        C452   1.356       .  A
C452        C453   1.396       .  A
C452        H455   1.083       .  S
C453        C732   1.492       .  S
C453        C454   1.374       .  A
C454        H456   1.083       .  S
N457        N458   1.318       .  A
N457        C461   1.363   1_565  A
N457       Cu465   2.156       .  S
N458        C459   1.328       .  A
N458       Cu464   1.983       .  S
C459        C460   1.365   1_565  A
C459        H462   1.084       .  S
C460       C1096   1.496       .  S
C460        C461   1.408       .  A
C461        H463   1.083       .  S
Cu464       N467   1.985       .  S
Cu465       N475   2.163       .  S
Cu466       N468   2.056       .  S
Cu466       N474   2.056       .  S
N467        N468   1.313       .  A
N467        C471   1.331       .  A
N468        C469   1.343       .  A
C469        C470   1.385       .  A
C469        H472   1.083       .  S
C470        C471   1.367       .  A
C471        H473   1.083   1_565  S
N474        N475   1.328       .  A
N474        C478   1.337       .  A
N475        C476   1.362   1_565  A
C476        C477   1.402   1_545  A
C476        H479   1.083       .  S
C477        C830   1.506   1_565  S
C477        C478   1.374       .  A
C478        H480   1.083       .  S
N481        N482   1.320       .  A
N481        C485   1.361       .  A
N481       Cu489   2.143       .  S
N482        C483   1.326       .  A
N482       Cu488   1.988       .  S
C483        C484   1.362       .  A
C483        H486   1.084       .  S
C484       C1040   1.489       .  S
C484        C485   1.404       .  A
C485        H487   1.083       .  S
Cu488       N491   1.990   1_655  S
Cu489       N499   2.147   1_655  S
Cu490       N492   2.030       .  S
Cu490       N498   2.032       .  S
N491        N492   1.311       .  A
N491        C495   1.333   1_455  A
N492        C493   1.338       .  A
C493        C494   1.378       .  A
C493        H496   1.083       .  S
C494        C495   1.369   1_455  A
C495        H497   1.083       .  S
N498        N499   1.326       .  A
N498        C502   1.330       .  A
N499        C500   1.362   1_455  A
C500        C501   1.400       .  A
C500        H503   1.082       .  S
C501        C942   1.493       .  S
C501        C502   1.366   1_655  A
C502        H504   1.072       .  S
N505        N506   1.323       .  A
N505        C509   1.356   1_556  A
N505       Cu513   2.119   1_556  S
N506        C507   1.338       .  A
N506       Cu512   2.048       .  S
C507        C508   1.373       .  A
C507        H510   1.083       .  S
C508       C1317   1.492   1_556  S
C508        C509   1.395   1_556  A
C509        H511   1.082       .  S
Cu512       N515   2.046       .  S
Cu513       N523   2.120       .  S
Cu514       N516   2.051       .  S
Cu514       N522   2.051       .  S
N515        N516   1.319   1_556  A
N515        C519   1.341       .  A
N516        C517   1.342       .  A
C517        C518   1.380   1_554  A
C517        H520   1.083       .  S
C518        C519   1.378       .  A
C519        H521   1.083       .  S
N522        N523   1.324       .  A
N522        C526   1.338       .  A
N523        C524   1.356       .  A
C524        C525   1.395       .  A
C524        H527   1.083   1_554  S
C525        C872   1.491   1_554  S
C525        C526   1.374       .  A
C526        H528   1.082       .  S
N529        N530   1.319       .  A
N529        C533   1.360       .  A
N529       Cu537   2.127       .  S
N530        C531   1.337       .  A
N530       Cu536   2.048       .  S
C531        C532   1.383       .  A
C531        H534   1.083       .  S
C532        C844   1.512       .  S
C532        C533   1.403       .  A
C533        H535   1.083       .  S
Cu536       N539   2.052       .  S
Cu537       N547   2.129       .  S
Cu538       N540   2.058       .  S
Cu538       N546   2.054       .  S
N539        N540   1.322       .  A
N539        C543   1.339       .  A
N540        C541   1.343       .  A
C541        C542   1.379       .  A
C541        H544   1.083       .  S
C542        C543   1.377       .  A
C543        H545   1.083       .  S
N546        N547   1.321       .  A
N546        C550   1.339       .  A
N547        C548   1.358       .  A
C548        C549   1.401       .  A
C548        H551   1.082       .  S
C549        C788   1.510       .  S
C549        C550   1.382       .  A
C550        H552   1.083       .  S
N553        N554   1.322       .  A
N553        C557   1.358   1_556  A
N553       Cu561   2.127   1_556  S
N554        C555   1.340       .  A
N554       Cu560   2.062       .  S
C555        C556   1.382       .  A
C555        H558   1.083       .  S
C556       C1261   1.509       .  S
C556        C557   1.399   1_556  A
C557        H559   1.083       .  S
Cu560       N563   2.065       .  S
Cu561       N571   2.125       .  S
Cu562       N564   2.045       .  S
Cu562       N570   2.044       .  S
N563        N564   1.321   1_556  A
N563        C567   1.344       .  A
N564        C565   1.339       .  A
C565        C566   1.376   1_554  A
C565        H568   1.083       .  S
C566        C567   1.382       .  A
C567        H569   1.083       .  S
N570        N571   1.321       .  A
N570        C574   1.339       .  A
N571        C572   1.358       .  A
C572        C573   1.398       .  A
C572        H575   1.082   1_554  S
C573        C984   1.496       .  S
C573        C574   1.375       .  A
C574        H576   1.082       .  S
N577        N578   1.321       .  A
N577        C581   1.358       .  A
N577       Cu585   2.127       .  S
N578        C579   1.339       .  A
N578       Cu584   2.050       .  S
C579        C580   1.381       .  A
C579        H582   1.083       .  S
C580        C897   1.507       .  S
C580        C581   1.400       .  A
C581        H583   1.082       .  S
Cu584       N587   2.054       .  S
Cu585       N595   2.126       .  S
Cu586       N588   2.050       .  S
Cu586       N594   2.048       .  S
N587        N588   1.322       .  A
N587        C591   1.340       .  A
N588        C589   1.340       .  A
C589        C590   1.377       .  A
C589        H592   1.083       .  S
C590        C591   1.378       .  A
C591        H593   1.083       .  S
N594        N595   1.320       .  A
N594        C598   1.338       .  A
N595        C596   1.359       .  A
C596        C597   1.401       .  A
C596        H599   1.083       .  S
C597        C956   1.506       .  S
C597        C598   1.380       .  A
C598        H600   1.083       .  S
N601        N602   1.324       .  A
N601        C605   1.362   1_655  A
N601       Cu609   2.158   1_655  S
N602        C603   1.333       .  A
N602       Cu608   2.031       .  S
C603        C604   1.372       .  A
C603        H606   1.083       .  S
C604        C928   1.501   1_655  S
C604        C605   1.403   1_655  A
C605        H607   1.082       .  S
Cu608       N611   2.033       .  S
Cu609       N619   2.158   1_455  S
Cu610       N612   2.029       .  S
Cu610       N618   2.026       .  S
N611        N612   1.312       .  A
N611        C615   1.340       .  A
N612        C613   1.339       .  A
C613        C614   1.378       .  A
C613        H616   1.083       .  S
C614        C615   1.379       .  A
C615        H617   1.083       .  S
N618        N619   1.323       .  A
N618        C622   1.333       .  A
N619        C620   1.362   1_655  A
C620        C621   1.404   1_455  A
C620        H623   1.082       .  S
C621        C718   1.499   1_655  S
C621        C622   1.372       .  A
C622        H624   1.084       .  S
N625        N626   1.320       .  A
N625        C629   1.365       .  A
N625       Cu633   2.155       .  S
N626        C627   1.332       .  A
N626       Cu632   2.020       .  S
C627        C628   1.372       .  A
C627        H630   1.083       .  S
C628        C816   1.504       .  S
C628        C629   1.407       .  A
C629        H631   1.082   1_565  S
Cu632       N635   2.015       .  S
Cu633       N643   2.159   1_565  S
Cu634       N636   2.038       .  S
Cu634       N642   2.040       .  S
N635        N636   1.315   1_565  A
N635        C639   1.336       .  A
N636        C637   1.339       .  A
C637        C638   1.379   1_545  A
C637        H640   1.083       .  S
C638        C639   1.373       .  A
C639        H641   1.083       .  S
N642        N643   1.326       .  A
N642        C646   1.338       .  A
N643        C644   1.362   1_545  A
C644        C645   1.402       .  A
C644        H647   1.083       .  S
C645        C774   1.499       .  S
C645        C646   1.369   1_565  A
C646        H648   1.084       .  S
N649        N650   1.317       .  A
N649        C653   1.360       .  A
N649       Cu657   2.135   1_554  S
N650        C651   1.337       .  A
N650       Cu656   2.035       .  S
C651        C652   1.382       .  A
C651        H654   1.083       .  S
C652        C886   1.511       .  S
C652        C653   1.406       .  A
C653        H655   1.080   1_554  S
Cu656       N659   2.035       .  S
Cu657       N667   2.139       .  S
Cu658       N660   2.064       .  S
Cu658       N666   2.063       .  S
N659        N660   1.321   1_554  A
N659        C663   1.335       .  A
N660        C661   1.346       .  A
C661        C662   1.382       .  A
C661        H664   1.083       .  S
C662        C663   1.373   1_556  A
C663        H665   1.084       .  S
N666        N667   1.323       .  A
N666        C670   1.340       .  A
N667        C668   1.360       .  A
C668        C669   1.401       .  A
C668        H671   1.079   1_556  S
C669        C995   1.509       .  S
C669        C670   1.381       .  A
C670        H672   1.084       .  S
C673        C674   1.446       .  A
C673        C678   1.452       .  A
C674        C675   1.410       .  A
C674        C679   1.450   1_455  S
C675        C676   1.404       .  A
C675        C682   1.455       .  S
C676        C677   1.402       .  A
C677        C678   1.427       .  A
C677        C680   1.453       .  S
C678        C681   1.446       .  S
C679        N686   1.157       .  T
C680        N685   1.157       .  T
C681        N683   1.157       .  T
C682        N684   1.157       .  T
C687        C688   1.402       .  A
C687        C692   1.401       .  A
C688        C689   1.429       .  A
C688        C693   1.452       .  S
C689        C690   1.452       .  A
C689        C696   1.446       .  S
C690        C691   1.450       .  A
C691        C692   1.414       .  A
C691        C694   1.450       .  S
C692        C695   1.458       .  S
C693        N700   1.157       .  T
C694        N699   1.157       .  T
C695        N697   1.157       .  T
C696        N698   1.158       .  T
C701        C702   1.450   1_455  A
C701        C706   1.450       .  A
C702        C703   1.418       .  A
C702        C707   1.450       .  S
C703        C704   1.400   1_655  A
C703        C710   1.456       .  S
C704        C705   1.400       .  A
C705        C706   1.424       .  A
C705        C708   1.454       .  S
C706        C709   1.448       .  S
C707        N714   1.157       .  T
C708        N713   1.157       .  T
C709        N711   1.158       .  T
C710        N712   1.157       .  T
C715        C716   1.446       .  A
C715        C720   1.453       .  A
C716        C717   1.427       .  A
C716        C721   1.447       .  S
C717        C718   1.400       .  A
C717        C724   1.451   1_455  S
C718        C719   1.402       .  A
C719        C720   1.416       .  A
C719        C722   1.458       .  S
C720        C723   1.451       .  S
C721        N728   1.157       .  T
C722        N727   1.157       .  T
C723        N725   1.157       .  T
C724        N726   1.157       .  T
C729        C730   1.456       .  A
C729        C734   1.449       .  A
C730        C731   1.417       .  A
C730        C735   1.450       .  S
C731        C732   1.396       .  A
C731        C738   1.456       .  S
C732        C733   1.404       .  A
C733        C734   1.419       .  A
C733        C736   1.454       .  S
C734        C737   1.453   1_545  S
C735        N742   1.158       .  T
C736        N741   1.157       .  T
C737        N739   1.157       .  T
C738        N740   1.157       .  T
C743        C744   1.455       .  A
C743        C748   1.449       .  A
C744        C745   1.419       .  A
C744        C749   1.449       .  S
C745        C746   1.396       .  A
C745        C752   1.456       .  S
C746        C747   1.400       .  A
C747        C748   1.416       .  A
C747        C750   1.455       .  S
C748        C751   1.452       .  S
C749        N756   1.158       .  T
C750        N755   1.157       .  T
C751        N753   1.157   1_565  T
C752        N754   1.157       .  T
C757        C758   1.455       .  A
C757        C762   1.444   1_565  A
C758        C759   1.425       .  A
C758        C763   1.451       .  S
C759        C760   1.401   1_565  A
C759        C766   1.454       .  S
C760        C761   1.408       .  A
C761        C762   1.413       .  A
C761        C764   1.457       .  S
C762        C765   1.454       .  S
C763        N770   1.158       .  T
C764        N769   1.157       .  T
C765        N767   1.157       .  T
C766        N768   1.157       .  T
C771        C772   1.450       .  A
C771        C776   1.454   1_565  A
C772        C773   1.420       .  A
C772        C777   1.452       .  S
C773        C774   1.404       .  A
C773        C780   1.454       .  S
C774        C775   1.399   1_565  A
C775        C776   1.424       .  A
C775        C778   1.455       .  S
C776        C779   1.448       .  S
C777        N784   1.157       .  T
C778        N783   1.157       .  T
C779        N781   1.158       .  T
C780        N782   1.157       .  T
C785        C786   1.445       .  A
C785        C790   1.451       .  A
C786        C787   1.429       .  A
C786        C791   1.445       .  S
C787        C788   1.404       .  A
C787        C794   1.451       .  S
C788        C789   1.406       .  A
C789        C790   1.419       .  A
C789        C792   1.457       .  S
C790        C793   1.452   1_545  S
C791        N798   1.157       .  T
C792        N797   1.158       .  T
C793        N795   1.157       .  T
C794        N796   1.157       .  T
C799        C800   1.452       .  A
C799        C804   1.452       .  A
C800        C801   1.425       .  A
C800        C805   1.446       .  S
C801        C802   1.399       .  A
C801        C808   1.454       .  S
C802        C803   1.399       .  A
C803        C804   1.421       .  A
C803        C806   1.455       .  S
C804        C807   1.449       .  S
C805        N812   1.158       .  T
C806        N811   1.157       .  T
C807        N809   1.157       .  T
C808        N810   1.157       .  T
C813        C814   1.454   1_565  A
C813        C818   1.448       .  A
C814        C815   1.431       .  A
C814        C819   1.445       .  S
C815        C816   1.402   1_545  A
C815        C822   1.452       .  S
C816        C817   1.402       .  A
C817        C818   1.415       .  A
C817        C820   1.458       .  S
C818        C821   1.448       .  S
C819        N826   1.158       .  T
C820        N825   1.157       .  T
C821        N823   1.157       .  T
C822        N824   1.157       .  T
C827        C828   1.448       .  A
C827        C832   1.453       .  A
C828        C829   1.429       .  A
C828        C833   1.444       .  S
C829        C830   1.400       .  A
C829        C836   1.452   1_545  S
C830        C831   1.404       .  A
C831        C832   1.419       .  A
C831        C834   1.458       .  S
C832        C835   1.452       .  S
C833        N840   1.157       .  T
C834        N839   1.157       .  T
C835        N837   1.158       .  T
C836        N838   1.157       .  T
C841        C842   1.453       .  A
C841        C846   1.444       .  A
C842        C843   1.438       .  A
C842        C847   1.442       .  S
C843        C844   1.407       .  A
C843        C850   1.454       .  S
C844        C845   1.401       .  A
C845        C846   1.402       .  A
C845        C848   1.453       .  S
C846        C849   1.453   1_554  S
C847        N854   1.158       .  T
C848        N853   1.157       .  T
C849        N851   1.158       .  T
C850        N852   1.157       .  T
C855        C856   1.401       .  A
C855        C860   1.403       .  A
C856        C857   1.421       .  A
C856        C861   1.456       .  S
C857        C858   1.451       .  A
C857        C864   1.450       .  S
C858        C859   1.449       .  A
C859        C860   1.413       .  A
C859        C862   1.458       .  S
C860        C863   1.453       .  S
C861        N868   1.157       .  T
C862        N867   1.158   1_556  T
C863        N865   1.157       .  T
C864        N866   1.158       .  T
C869        C870   1.439       .  A
C869        C874   1.443   1_556  A
C870        C871   1.416       .  A
C870        C875   1.446       .  S
C871        C872   1.404       .  A
C871        C878   1.454       .  S
C872        C873   1.401   1_556  A
C873        C874   1.419       .  A
C873        C876   1.451       .  S
C874        C877   1.449       .  S
C875        N882   1.157       .  T
C876        N881   1.157       .  T
C877        N879   1.158       .  T
C878        N880   1.157       .  T
C883        C884   1.462       .  A
C883        C888   1.426   1_556  A
C884        C885   1.431       .  A
C884        C889   1.453       .  S
C885        C886   1.407   1_556  A
C885        C892   1.454       .  S
C886        C887   1.407       .  A
C887        C888   1.407       .  A
C887        C890   1.452       .  S
C888        C891   1.446       .  S
C889        N896   1.159       .  T
C890        N895   1.157       .  T
C891        N893   1.157       .  T
C892        N894   1.157       .  T
C897        C898   1.401       .  A
C897        C902   1.405       .  A
C898        C899   1.427       .  A
C898        C903   1.453       .  S
C899        C900   1.449       .  A
C899        C906   1.445       .  S
C900        C901   1.450       .  A
C901        C902   1.420       .  A
C901        C904   1.448   1_455  S
C902        C905   1.458       .  S
C903        N910   1.157       .  T
C904        N909   1.156       .  T
C905        N907   1.157       .  T
C906        N908   1.157       .  T
C911        C912   1.453       .  A
C911        C916   1.451       .  A
C912        C913   1.421       .  A
C912        C917   1.448       .  S
C913        C914   1.397       .  A
C913        C920   1.455       .  S
C914        C915   1.400       .  A
C915        C916   1.425       .  A
C915        C918   1.454       .  S
C916        C919   1.446       .  S
C917        N924   1.157       .  T
C918        N923   1.157       .  T
C919        N921   1.158       .  T
C920        N922   1.157       .  T
C925        C926   1.448       .  A
C925        C930   1.450       .  A
C926        C927   1.428       .  A
C926        C931   1.444       .  S
C927        C928   1.399       .  A
C927        C934   1.452       .  S
C928        C929   1.403       .  A
C929        C930   1.417       .  A
C929        C932   1.458       .  S
C930        C933   1.448       .  S
C931        N938   1.157       .  T
C932        N937   1.157       .  T
C933        N935   1.156       .  T
C934        N936   1.157       .  T
C939        C940   1.451       .  A
C939        C944   1.452   1_655  A
C940        C941   1.418       .  A
C940        C945   1.449       .  S
C941        C942   1.399       .  A
C941        C948   1.457       .  S
C942        C943   1.400   1_655  A
C943        C944   1.425       .  A
C943        C946   1.454       .  S
C944        C947   1.446       .  S
C945        N952   1.157       .  T
C946        N951   1.157       .  T
C947        N949   1.158       .  T
C948        N950   1.157       .  T
C953        C954   1.451       .  A
C953        C958   1.444       .  A
C954        C955   1.431       .  A
C954        C959   1.445       .  S
C955        C956   1.405       .  A
C955        C962   1.452       .  S
C956        C957   1.404       .  A
C957        C958   1.409       .  A
C957        C960   1.455       .  S
C958        C961   1.449   1_554  S
C959        N966   1.157       .  T
C960        N965   1.157       .  T
C961        N963   1.157       .  T
C962        N964   1.157       .  T
C967        C968   1.404       .  A
C967        C972   1.404       .  A
C968        C969   1.429       .  A
C968        C973   1.451       .  S
C969        C970   1.451       .  A
C969        C976   1.446       .  S
C970        C971   1.449       .  A
C971        C972   1.415       .  A
C971        C974   1.450       .  S
C972        C975   1.457       .  S
C973        N980   1.157       .  T
C974        N979   1.157       .  T
C975        N977   1.157       .  T
C976        N978   1.158       .  T
C981        C982   1.449   1_554  A
C981        C986   1.450       .  A
C982        C983   1.419       .  A
C982        C987   1.449       .  S
C983        C984   1.400   1_556  A
C983        C990   1.455       .  S
C984        C985   1.401       .  A
C985        C986   1.424       .  A
C985        C988   1.454       .  S
C986        C989   1.447       .  S
C987        N994   1.157       .  T
C988        N993   1.157       .  T
C989        N991   1.158       .  T
C990        N992   1.157       .  T
C995        C996   1.406       .  A
C995       C1000   1.404   1_556  A
C996        C997   1.430       .  A
C996       C1001   1.450       .  S
C997        C998   1.443   1_556  A
C997       C1004   1.448       .  S
C998        C999   1.452       .  A
C999       C1000   1.418       .  A
C999       C1002   1.453       .  S
C1000      C1003   1.458       .  S
C1001      N1008   1.157       .  T
C1002      N1007   1.158       .  T
C1003      N1005   1.157       .  T
C1004      N1006   1.157       .  T
C1009      C1010   1.448       .  A
C1009      C1014   1.455       .  A
C1010      C1011   1.416       .  A
C1010      C1015   1.452       .  S
C1011      C1012   1.401       .  A
C1011      C1018   1.455       .  S
C1012      C1013   1.396       .  A
C1013      C1014   1.418       .  A
C1013      C1016   1.456       .  S
C1014      C1017   1.450       .  S
C1015      N1022   1.157   1_455  T
C1016      N1021   1.157       .  T
C1017      N1019   1.158       .  T
C1018      N1020   1.157       .  T
C1023      C1024   1.447       .  A
C1023      C1028   1.456       .  A
C1024      C1025   1.416       .  A
C1024      C1029   1.452       .  S
C1025      C1026   1.401       .  A
C1025      C1032   1.454       .  S
C1026      C1027   1.395       .  A
C1027      C1028   1.416       .  A
C1027      C1030   1.457       .  S
C1028      C1031   1.451       .  S
C1029      N1036   1.157   1_655  T
C1030      N1035   1.157       .  T
C1031      N1033   1.158       .  T
C1032      N1034   1.157       .  T
C1037      C1038   1.446       .  A
C1037      C1042   1.454   1_655  A
C1038      C1039   1.412       .  A
C1038      C1043   1.453       .  S
C1039      C1040   1.405       .  A
C1039      C1046   1.458       .  S
C1040      C1041   1.398   1_655  A
C1041      C1042   1.422       .  A
C1041      C1044   1.455       .  S
C1042      C1045   1.450       .  S
C1043      N1050   1.157       .  T
C1044      N1049   1.157       .  T
C1045      N1047   1.158       .  T
C1046      N1048   1.157       .  T
C1051      C1052   1.454   1_455  A
C1051      C1056   1.449       .  A
C1052      C1053   1.419       .  A
C1052      C1057   1.449       .  S
C1053      C1054   1.397   1_655  A
C1053      C1060   1.456       .  S
C1054      C1055   1.402       .  A
C1055      C1056   1.417       .  A
C1055      C1058   1.455       .  S
C1056      C1059   1.452       .  S
C1057      N1064   1.158       .  T
C1058      N1063   1.157       .  T
C1059      N1061   1.157       .  T
C1060      N1062   1.157       .  T
C1065      C1066   1.449       .  A
C1065      C1070   1.455       .  A
C1066      C1067   1.418       .  A
C1066      C1071   1.452       .  S
C1067      C1068   1.402       .  A
C1067      C1074   1.454       .  S
C1068      C1069   1.397       .  A
C1069      C1070   1.420       .  A
C1069      C1072   1.456       .  S
C1070      C1073   1.450       .  S
C1071      N1078   1.157   1_545  T
C1072      N1077   1.157       .  T
C1073      N1075   1.158       .  T
C1074      N1076   1.157       .  T
C1079      C1080   1.448       .  A
C1079      C1084   1.456       .  A
C1080      C1081   1.416       .  A
C1080      C1085   1.452       .  S
C1081      C1082   1.401       .  A
C1081      C1088   1.455       .  S
C1082      C1083   1.395       .  A
C1083      C1084   1.418       .  A
C1083      C1086   1.457       .  S
C1084      C1087   1.450       .  S
C1085      N1092   1.157   1_565  T
C1086      N1091   1.157       .  T
C1087      N1089   1.158       .  T
C1088      N1090   1.157       .  T
C1093      C1094   1.455       .  A
C1093      C1098   1.446   1_565  A
C1094      C1095   1.423       .  A
C1094      C1099   1.450       .  S
C1095      C1096   1.398   1_565  A
C1095      C1102   1.455       .  S
C1096      C1097   1.407       .  A
C1097      C1098   1.416       .  A
C1097      C1100   1.457       .  S
C1098      C1101   1.453       .  S
C1099      N1106   1.158       .  T
C1100      N1105   1.157       .  T
C1101      N1103   1.157       .  T
C1102      N1104   1.157       .  T
C1107      C1108   1.453   1_565  A
C1107      C1112   1.449       .  A
C1108      C1109   1.420       .  A
C1108      C1113   1.450       .  S
C1109      C1110   1.397   1_545  A
C1109      C1116   1.456       .  S
C1110      C1111   1.402       .  A
C1111      C1112   1.417       .  A
C1111      C1114   1.455       .  S
C1112      C1115   1.452       .  S
C1113      N1120   1.158       .  T
C1114      N1119   1.157       .  T
C1115      N1117   1.157       .  T
C1116      N1118   1.157       .  T
C1121      C1122   1.449       .  A
C1121      C1126   1.456       .  A
C1122      C1123   1.415       .  A
C1122      C1127   1.452       .  S
C1123      C1124   1.400       .  A
C1123      C1130   1.456       .  S
C1124      C1125   1.397       .  A
C1125      C1126   1.421       .  A
C1125      C1128   1.456       .  S
C1126      C1129   1.450       .  S
C1127      N1134   1.157   1_545  T
C1128      N1133   1.157       .  T
C1129      N1131   1.158       .  T
C1130      N1132   1.157       .  T
C1135      C1136   1.400       .  A
C1135      C1140   1.405       .  A
C1136      C1137   1.425       .  A
C1136      C1141   1.456       .  S
C1137      C1138   1.458       .  A
C1137      C1144   1.451       .  S
C1138      C1139   1.444       .  A
C1139      C1140   1.412       .  A
C1139      C1142   1.452       .  S
C1140      C1143   1.458       .  S
C1141      N1148   1.157       .  T
C1142      N1147   1.157   1_565  T
C1143      N1145   1.157       .  T
C1144      N1146   1.159       .  T
C1149      C1150   1.448   1_565  A
C1149      C1154   1.457       .  A
C1150      C1151   1.419       .  A
C1150      C1155   1.451       .  S
C1151      C1152   1.402       .  A
C1151      C1158   1.455       .  S
C1152      C1153   1.397   1_545  A
C1153      C1154   1.421       .  A
C1153      C1156   1.456       .  S
C1154      C1157   1.451       .  S
C1155      N1162   1.157       .  T
C1156      N1161   1.157       .  T
C1157      N1159   1.158       .  T
C1158      N1160   1.157       .  T
C1163      C1164   1.445       .  A
C1163      C1168   1.457   1_565  A
C1164      C1165   1.413       .  A
C1164      C1169   1.451       .  S
C1165      C1166   1.404       .  A
C1165      C1172   1.458       .  S
C1166      C1167   1.397   1_565  A
C1167      C1168   1.422       .  A
C1167      C1170   1.455       .  S
C1168      C1171   1.451       .  S
C1169      N1176   1.157       .  T
C1170      N1175   1.157       .  T
C1171      N1173   1.158       .  T
C1172      N1174   1.157       .  T
C1177      C1178   1.403       .  A
C1177      C1182   1.409       .  A
C1178      C1179   1.426       .  A
C1178      C1183   1.455       .  S
C1179      C1180   1.457       .  A
C1179      C1186   1.452       .  S
C1180      C1181   1.443       .  A
C1181      C1182   1.415       .  A
C1181      C1184   1.453       .  S
C1182      C1185   1.457       .  S
C1183      N1190   1.157       .  T
C1184      N1189   1.157   1_455  T
C1185      N1187   1.157       .  T
C1186      N1188   1.159       .  T
C1191      C1192   1.458       .  A
C1191      C1196   1.448       .  A
C1192      C1193   1.419       .  A
C1192      C1197   1.450       .  S
C1193      C1194   1.395       .  A
C1193      C1200   1.456       .  S
C1194      C1195   1.401       .  A
C1195      C1196   1.417       .  A
C1195      C1198   1.455       .  S
C1196      C1199   1.451       .  S
C1197      N1204   1.158       .  T
C1198      N1203   1.157       .  T
C1199      N1201   1.157   1_655  T
C1200      N1202   1.157       .  T
C1205      C1206   1.408       .  A
C1205      C1210   1.399   1_655  A
C1206      C1207   1.414       .  A
C1206      C1211   1.458       .  S
C1207      C1208   1.446   1_655  A
C1207      C1214   1.453       .  S
C1208      C1209   1.457       .  A
C1209      C1210   1.424       .  A
C1209      C1212   1.450       .  S
C1210      C1213   1.455       .  S
C1211      N1218   1.157       .  T
C1212      N1217   1.158       .  T
C1213      N1215   1.157       .  T
C1214      N1216   1.157       .  T
C1219      C1220   1.405       .  A
C1219      C1224   1.402   1_455  A
C1220      C1221   1.412       .  A
C1220      C1225   1.458       .  S
C1221      C1222   1.445       .  A
C1221      C1228   1.452       .  S
C1222      C1223   1.456   1_455  A
C1223      C1224   1.428       .  A
C1223      C1226   1.450       .  S
C1224      C1227   1.455       .  S
C1225      N1232   1.157       .  T
C1226      N1231   1.159       .  T
C1227      N1229   1.157       .  T
C1228      N1230   1.157       .  T
C1233      C1234   1.449       .  A
C1233      C1238   1.444       .  A
C1234      C1235   1.430       .  A
C1234      C1239   1.446       .  S
C1235      C1236   1.405       .  A
C1235      C1242   1.452       .  S
C1236      C1237   1.404       .  A
C1237      C1238   1.408       .  A
C1237      C1240   1.455       .  S
C1238      C1241   1.450   1_554  S
C1239      N1246   1.157       .  T
C1240      N1245   1.157       .  T
C1241      N1243   1.158       .  T
C1242      N1244   1.157       .  T
C1247      C1248   1.452       .  A
C1247      C1252   1.449       .  A
C1248      C1249   1.425       .  A
C1248      C1253   1.446       .  S
C1249      C1250   1.400       .  A
C1249      C1256   1.452       .  S
C1250      C1251   1.402       .  A
C1251      C1252   1.410       .  A
C1251      C1254   1.457       .  S
C1252      C1255   1.452       .  S
C1253      N1260   1.158       .  T
C1254      N1259   1.157       .  T
C1255      N1257   1.157       .  T
C1256      N1258   1.157       .  T
C1261      C1262   1.407   1_556  A
C1261      C1266   1.406   1_556  A
C1262      C1263   1.417       .  A
C1262      C1267   1.457       .  S
C1263      C1264   1.449       .  A
C1263      C1270   1.453       .  S
C1264      C1265   1.443       .  A
C1265      C1266   1.428       .  A
C1265      C1268   1.448       .  S
C1266      C1269   1.451   1_554  S
C1267      N1274   1.158       .  T
C1268      N1273   1.157       .  T
C1269      N1271   1.157       .  T
C1270      N1272   1.158       .  T
C1275      C1276   1.400   1_554  A
C1275      C1280   1.400       .  A
C1276      C1277   1.411       .  A
C1276      C1281   1.457       .  S
C1277      C1278   1.447   1_556  A
C1277      C1284   1.450       .  S
C1278      C1279   1.452       .  A
C1279      C1280   1.425       .  A
C1279      C1282   1.447       .  S
C1280      C1283   1.452       .  S
C1281      N1288   1.157       .  T
C1282      N1287   1.158       .  T
C1283      N1285   1.157       .  T
C1284      N1286   1.157       .  T
C1289      C1290   1.404       .  A
C1289      C1294   1.407       .  A
C1290      C1291   1.428       .  A
C1290      C1295   1.454       .  S
C1291      C1292   1.455       .  A
C1291      C1298   1.451       .  S
C1292      C1293   1.445       .  A
C1293      C1294   1.413       .  A
C1293      C1296   1.452       .  S
C1294      C1297   1.458       .  S
C1295      N1302   1.157       .  T
C1296      N1301   1.157   1_554  T
C1297      N1299   1.157       .  T
C1298      N1300   1.159       .  T
C1303      C1304   1.449       .  A
C1303      C1308   1.457       .  A
C1304      C1305   1.417       .  A
C1304      C1309   1.451       .  S
C1305      C1306   1.400       .  A
C1305      C1312   1.455       .  S
C1306      C1307   1.396       .  A
C1307      C1308   1.420       .  A
C1307      C1310   1.457       .  S
C1308      C1311   1.449       .  S
C1309      N1316   1.157   1_556  T
C1310      N1315   1.157       .  T
C1311      N1313   1.158       .  T
C1312      N1314   1.157       .  T
C1317      C1318   1.399       .  A
C1317      C1322   1.397   1_554  A
C1318      C1319   1.417       .  A
C1318      C1323   1.455       .  S
C1319      C1320   1.448       .  A
C1319      C1326   1.450       .  S
C1320      C1321   1.457   1_554  A
C1321      C1322   1.423       .  A
C1321      C1324   1.450       .  S
C1322      C1325   1.456       .  S
C1323      N1330   1.157       .  T
C1324      N1329   1.158       .  T
C1325      N1327   1.157       .  T
C1326      N1328   1.157       .  T
C1331      C1332   1.448   1_554  A
C1331      C1336   1.456       .  A
C1332      C1333   1.417       .  A
C1332      C1337   1.452       .  S
C1333      C1334   1.402       .  A
C1333      C1340   1.456       .  S
C1334      C1335   1.397   1_556  A
C1335      C1336   1.420       .  A
C1335      C1338   1.456       .  S
C1336      C1339   1.451       .  S
C1337      N1344   1.157       .  T
C1338      N1343   1.157       .  T
C1339      N1341   1.158       .  T
C1340      N1342   1.157       .  T
